<?xml version="1.0"?>
<!-- 
194 Cars leaving the Computer Science Building and campus of the University of Erlangen-Nuremberg
Copyright (C) 2008 Christoph Sommer <christoph.sommer@informatik.uni-erlangen.de>
Licensed under the Creative Commons Attribution-ShareAlike 2.0 license <http://creativecommons.org/licenses/by-sa/2.0/>
-->
<routes>
   <vType id="vtype0" accel="2.6" decel="4.5" sigma="0.5" length="2.5" minGap="2.5" maxSpeed="14" color="1,1,0"/>
   <route id="route0" edges="293149231#0 293149231#2 294921123#0 28727103#0 28727103#1 320455187#0 24864540#1 24864540#2 24864540#3 24864540#4 24864540#5 24864540#7 335532208#0 335532208#4 335532207#0 335532207#1 11729090#0 11729090#1 11729090#2 11729090#4 335532206 54964356#0 54964356#1 54964356#2 335532205"/>
   <flow id="flow0" type="vtype0" route="route0" begin="0" period="3" number="4"/>
</routes>
