<?xml version="1.0" encoding="UTF-8"?>

<!-- generated on Wed Apr 20 21:00:18 2016 by SUMO polyconvert Version 0.25.0
<?xml version="1.0" encoding="UTF-8"?>

<configuration xmlns:xsi="http://www.w3.org/2001/XMLSchema-instance" xsi:noNamespaceSchemaLocation="http://sumo.dlr.de/xsd/polyconvertConfiguration.xsd">

    <input>
        <net-file value="cmu.net.xml"/>
        <osm-files value="cmu.osm"/>
        <type-file value="typemap.xml"/>
    </input>

    <output>
        <output-file value="cmu.poly.xml"/>
    </output>

    <processing>
        <poi-layer-offset value="5"/>
    </processing>

</configuration>
-->

<additional xmlns:xsi="http://www.w3.org/2001/XMLSchema-instance" xsi:noNamespaceSchemaLocation="http://sumo.dlr.de/xsd/additional_file.xsd">
    <location netOffset="-588414.20,-4477276.14" convBoundary="-956.97,-1510.17,3102.56,1771.50" origBoundary="-79.968728,40.427755,-79.920715,40.457139" projParameter="+proj=utm +zone=17 +ellps=WGS84 +datum=WGS84 +units=m +no_defs"/>

    <poly id="103686985" type="unknown" color="51,128,255" fill="1" layer="-1.00" shape="453.02,665.46 476.72,675.50 483.74,659.03 531.87,679.40 524.89,695.76 496.83,683.87 489.39,701.31 470.56,693.34 468.23,698.80 443.30,688.24 453.02,665.46"/>
    <poly id="104205386" type="building" color="255,230,230" fill="1" layer="2.00" shape="484.84,719.13 490.49,707.25 513.28,718.02 507.63,729.89 484.84,719.13"/>
    <poly id="104205387" type="building" color="255,230,230" fill="1" layer="2.00" shape="473.58,672.56 449.81,663.52 466.73,615.25 469.36,611.11 473.06,608.42 477.77,607.02 496.15,608.80 473.58,672.56"/>
    <poly id="104205388" type="building" color="255,230,230" fill="1" layer="2.00" shape="463.78,814.67 456.21,811.09 458.22,806.86 442.96,799.65 444.80,795.78 430.86,789.18 435.36,779.75 472.13,797.16 463.78,814.67"/>
    <poly id="104205389" type="building" color="255,230,230" fill="1" layer="2.00" shape="427.26,730.13 438.55,699.11 462.22,707.65 450.93,738.68 427.26,730.13"/>
    <poly id="104205390" type="building" color="255,230,230" fill="1" layer="2.00" shape="454.96,737.51 463.32,720.19 501.64,738.53 493.28,755.85 454.96,737.51"/>
    <poly id="104205391" type="building" color="255,230,230" fill="1" layer="2.00" shape="428.35,741.74 421.19,757.42 477.11,782.80 484.28,767.12 428.35,741.74"/>
    <poly id="104206036" type="building" color="255,230,230" fill="1" layer="2.00" shape="468.21,600.48 473.07,602.52 471.31,606.98 466.56,604.93 468.21,600.48"/>
    <poly id="104431157" type="building" color="255,230,230" fill="1" layer="2.00" shape="492.32,821.02 498.16,808.90 519.44,819.06 523.35,810.90 502.67,801.04 508.31,789.30 547.09,807.80 541.55,819.32 533.15,815.30 529.10,823.73 537.84,827.89 532.04,839.98 492.32,821.02"/>
    <poly id="104431158" type="building" color="255,230,230" fill="1" layer="2.00" shape="621.01,688.49 618.47,688.13 619.47,676.94 621.00,662.42 627.41,663.01 627.71,659.89 624.34,659.43 621.22,659.13 622.43,644.32 625.20,644.55 627.97,644.68 629.13,630.98 646.78,632.44 667.23,634.24 667.12,635.22 668.01,637.02 667.88,639.79 666.56,642.14 665.05,643.21 662.96,643.35 661.01,665.86 665.89,666.42 664.46,680.62 663.25,692.52 661.51,692.39 660.43,699.87 647.03,698.77 642.78,700.75 637.81,700.33 633.01,697.40 626.33,696.47 620.15,695.83 621.01,688.49"/>
    <poly id="104431159" type="building" color="255,230,230" fill="1" layer="2.00" shape="592.64,710.44 601.87,690.96 616.96,698.08 627.27,702.95 625.92,705.89 624.63,708.50 643.83,717.58 639.19,727.32 619.91,718.20 617.90,722.39 592.64,710.44"/>
    <poly id="104431160" type="building" color="255,230,230" fill="1" layer="2.00" shape="536.90,860.14 544.53,844.21 563.21,853.10 574.57,829.38 591.16,837.27 572.17,876.92 536.90,860.14"/>
    <poly id="104431161" type="building" color="255,230,230" fill="1" layer="2.00" shape="568.14,660.91 583.12,628.32 586.65,629.93 588.76,625.31 594.95,628.14 591.00,636.72 598.32,640.06 589.17,659.92 584.44,657.77 580.42,666.51 568.14,660.91"/>
    <poly id="104431162" type="building" color="255,230,230" fill="1" layer="2.00" shape="517.28,767.28 536.06,729.80 562.69,743.04 565.32,737.80 578.51,744.36 557.10,787.08 517.28,767.28"/>
    <poly id="104431165" type="building" color="255,230,230" fill="1" layer="2.00" shape="534.09,894.21 546.71,881.53 536.57,871.51 523.93,884.19 534.09,894.21"/>
    <poly id="104431165#1" type="shop" color="237,199,255" fill="1" layer="2.00" shape="534.09,894.21 546.71,881.53 536.57,871.51 523.93,884.19 534.09,894.21"/>
    <poly id="104431166" type="unknown" color="51,128,255" fill="1" layer="-1.00" shape="549.98,723.20 555.80,710.93 579.91,722.29 586.39,708.64 597.55,713.89 585.25,739.82 549.98,723.20"/>
    <poly id="104431168" type="building" color="255,230,230" fill="1" layer="2.00" shape="555.55,811.44 561.72,798.78 568.79,802.21 568.43,802.94 595.76,816.17 596.13,815.42 603.26,818.87 597.08,831.53 589.96,828.08 590.31,827.35 562.97,814.13 562.62,814.87 555.55,811.44"/>
    <poly id="11653205" type="unknown" color="51,128,255" fill="0" layer="-1.00" shape="1426.28,328.31 1431.23,340.49 1440.62,346.40 1470.57,340.34 1504.84,333.39 1581.49,316.18 1587.30,318.34 1588.69,326.33 1583.32,329.99 1515.59,343.97 1509.12,340.70 1504.84,333.39"/>
    <poly id="11669596" type="unknown" color="51,128,255" fill="0" layer="-1.00" shape="1467.97,615.77 1462.88,615.25 1419.25,610.83"/>
    <poly id="11672244" type="unknown" color="51,128,255" fill="0" layer="-1.00" shape="1312.43,352.42 1329.55,389.73 1332.29,395.87 1342.48,395.99 1348.14,409.11 1353.80,422.96 1355.12,426.06 1378.59,480.54 1360.05,508.59 1338.80,520.67 1322.76,522.66 1285.29,522.10"/>
    <poly id="11673931" type="unknown" color="51,128,255" fill="1" layer="-1.00" shape="1700.00,571.42 1703.71,584.53 1711.23,579.73 1713.87,567.96 1711.03,562.84 1706.03,561.89 1700.47,564.93 1700.00,571.42"/>
    <poly id="11680951" type="unknown" color="51,128,255" fill="0" layer="-1.00" shape="1678.30,588.10 1685.07,589.31 1692.67,589.41 1699.49,587.55 1703.71,584.53"/>
    <poly id="11683958" type="unknown" color="51,128,255" fill="0" layer="-1.00" shape="448.77,239.24 460.44,206.32 490.70,120.95 494.60,109.92"/>
    <poly id="11685703" type="unknown" color="51,128,255" fill="0" layer="-1.00" shape="1762.86,401.38 1748.90,427.41 1747.10,436.17 1746.33,469.87 1750.39,484.53 1759.95,492.80 1798.48,515.47"/>
    <poly id="11685963" type="unknown" color="51,128,255" fill="0" layer="-1.00" shape="1552.25,490.34 1562.70,486.08 1607.23,476.76 1625.37,476.40 1649.44,479.14 1652.48,478.37 1655.46,475.83"/>
    <poly id="11687001" type="unknown" color="51,128,255" fill="0" layer="-1.00" shape="1703.41,726.65 1781.29,697.73 1820.49,684.33 1868.64,666.86 1983.43,625.44 2038.34,596.92 2223.08,492.16"/>
    <poly id="11690395" type="unknown" color="51,128,255" fill="0" layer="-1.00" shape="1579.23,293.72 1591.31,300.31 1715.49,372.91 1762.86,401.38 1815.36,433.33 1838.72,445.89 1850.83,447.95 1881.22,452.64 1909.83,455.78 2048.61,470.55 2223.08,492.16"/>
    <poly id="11690551" type="unknown" color="51,128,255" fill="0" layer="-1.00" shape="1388.89,1112.53 1442.69,998.84 1475.73,927.70 1495.05,884.59 1508.97,855.03 1529.87,809.65 1573.61,712.80"/>
    <poly id="11691398" type="unknown" color="51,128,255" fill="0" layer="-1.00" shape="1556.06,621.05 1558.96,593.24 1565.03,534.99 1552.25,490.34 1530.11,416.09"/>
    <poly id="11695786" type="unknown" color="51,128,255" fill="0" layer="-1.00" shape="521.94,896.11 502.01,930.94 467.91,1000.03 444.40,1048.53 442.12,1053.59"/>
    <poly id="11697077" type="unknown" color="51,128,255" fill="0" layer="-1.00" shape="578.17,602.32 573.51,621.37 549.02,671.16 467.10,844.80"/>
    <poly id="11720583" type="unknown" color="51,128,255" fill="0" layer="-1.00" shape="584.14,537.72 625.70,543.40"/>
    <poly id="11729090" type="unknown" color="51,128,255" fill="0" layer="-1.00" shape="1312.43,352.42 1344.64,345.13 1370.18,339.86 1389.27,335.91 1426.28,328.31 1532.53,304.79"/>
    <poly id="11729757" type="unknown" color="51,128,255" fill="0" layer="-1.00" shape="1149.51,667.54 1154.72,544.47"/>
    <poly id="11730622" type="unknown" color="51,128,255" fill="0" layer="-1.00" shape="822.58,736.86 904.71,839.38 933.69,877.08 1012.22,977.01 1043.75,1016.36 1213.52,1063.45 1236.80,1069.73 1296.63,1086.85 1321.30,1093.78 1388.89,1112.53 1424.95,1129.25 1476.76,1152.48 1533.39,1177.94 1570.97,1195.42 1585.05,1201.86 1636.63,1225.26 1656.45,1234.24 1658.48,1235.13 1745.61,1275.19 1809.18,1317.45 1816.57,1323.18 1842.79,1336.73 1875.84,1357.98 1909.49,1380.59 1948.19,1405.70 2011.67,1446.90 2018.21,1451.14 2042.12,1466.66 2095.86,1501.54 2150.79,1537.19 2163.26,1553.38 2243.86,1656.34 2274.58,1691.28 2303.40,1714.75 2369.82,1771.50"/>
    <poly id="11731298" type="unknown" color="51,128,255" fill="0" layer="-1.00" shape="1475.73,927.70 1546.75,958.20 1649.24,1005.27 1742.13,1047.41"/>
    <poly id="11731775" type="unknown" color="51,128,255" fill="0" layer="-1.00" shape="644.24,968.43 571.08,1147.90 547.63,1205.41"/>
    <poly id="11734052" type="unknown" color="51,128,255" fill="0" layer="-1.00" shape="494.60,109.92 499.90,107.75 510.67,104.19 536.78,94.90 544.78,92.05 555.36,88.14 576.55,80.30 604.21,66.47 623.13,53.54 629.39,49.26 631.60,47.74"/>
    <poly id="11736605" type="unknown" color="51,128,255" fill="0" layer="-1.00" shape="1629.18,232.46 1657.28,251.53 1666.67,253.43 1675.49,250.29 1719.82,196.44 1747.07,170.66 1750.57,166.86"/>
    <poly id="11737884" type="unknown" color="51,128,255" fill="0" layer="-1.00" shape="466.81,567.16 423.34,525.58 361.31,464.85 295.93,401.91 225.71,333.05 204.95,315.55 181.93,291.16 150.41,261.00 114.09,227.51 75.14,191.59 -0.00,119.99"/>
    <poly id="11739047" type="unknown" color="51,128,255" fill="0" layer="-1.00" shape="1398.89,694.16 1382.36,812.17"/>
    <poly id="11740080" type="unknown" color="51,128,255" fill="0" layer="-1.00" shape="1665.65,404.28 1643.87,395.98 1628.96,393.54 1610.40,394.13 1534.04,409.74 1530.11,416.09"/>
    <poly id="11742233" type="unknown" color="51,128,255" fill="0" layer="-1.00" shape="423.34,525.58 283.73,667.09"/>
    <poly id="11742581" type="unknown" color="51,128,255" fill="0" layer="-1.00" shape="1665.65,404.28 1683.81,413.52 1690.53,415.73 1700.42,414.79 1705.84,409.73 1709.24,402.76 1715.49,372.91"/>
    <poly id="11743885" type="unknown" color="51,128,255" fill="0" layer="-1.00" shape="307.24,689.31 351.49,732.55 365.55,746.50 393.63,773.81"/>
    <poly id="11750475" type="unknown" color="51,128,255" fill="0" layer="-1.00" shape="578.17,602.32 584.14,537.72"/>
    <poly id="11753371" type="unknown" color="51,128,255" fill="0" layer="-1.00" shape="1318.56,939.98 1442.69,998.84"/>
    <poly id="11755338" type="unknown" color="51,128,255" fill="0" layer="-1.00" shape="921.97,388.42 913.59,368.73 908.64,361.08 905.28,355.89"/>
    <poly id="11756576" type="unknown" color="51,128,255" fill="0" layer="-1.00" shape="1646.44,631.24 1633.36,619.04 1628.93,612.35 1626.48,606.27 1625.99,598.25 1630.28,588.67 1638.64,583.73 1643.78,582.40 1655.92,584.42 1678.30,588.10 1650.90,560.80 1655.46,475.83 1662.60,412.01 1665.65,404.28"/>
    <poly id="11804569" type="unknown" color="51,128,255" fill="0" layer="-1.00" shape="956.87,1095.30 963.72,1079.60 974.23,1059.34 982.88,1044.86 990.71,1028.30 998.81,1002.67 997.39,994.34 1012.22,977.01"/>
    <poly id="11805275" type="unknown" color="51,128,255" fill="0" layer="-1.00" shape="857.65,635.55 872.90,589.85 878.04,573.25 898.13,514.01 920.72,455.02"/>
    <poly id="11820239" type="unknown" color="51,128,255" fill="0" layer="-1.00" shape="466.81,567.16 393.63,773.81"/>
    <poly id="11822295" type="unknown" color="51,128,255" fill="0" layer="-1.00" shape="1529.87,809.65 1796.05,931.72"/>
    <poly id="11826990" type="unknown" color="51,128,255" fill="0" layer="-1.00" shape="713.57,619.42 720.18,554.69 727.14,493.55 733.23,435.48"/>
    <poly id="11833004" type="unknown" color="51,128,255" fill="0" layer="-1.00" shape="361.31,464.85 221.08,605.52 56.99,777.78"/>
    <poly id="11833234" type="unknown" color="51,128,255" fill="0" layer="-1.00" shape="1467.97,615.77 1518.74,618.82"/>
    <poly id="11834237" type="unknown" color="51,128,255" fill="0" layer="-1.00" shape="567.00,282.76 522.81,409.52 502.30,465.57 466.81,567.16"/>
    <poly id="11837579" type="unknown" color="51,128,255" fill="0" layer="-1.00" shape="1268.23,680.23 1271.57,652.24 1277.29,600.79 1280.07,574.10 1285.29,522.10 1284.48,509.75 1276.51,491.38 1265.52,465.91 1253.90,439.22 1242.45,413.46 1234.10,395.63 1228.60,381.71 1224.64,369.61"/>
    <poly id="11840126" type="unknown" color="51,128,255" fill="0" layer="-1.00" shape="522.81,409.52 598.27,420.03"/>
    <poly id="11851716" type="unknown" color="51,128,255" fill="0" layer="-1.00" shape="1310.08,62.75 1316.28,60.96 1324.48,58.77 1338.29,55.09 1349.26,51.44 1357.14,48.11 1381.22,43.01 1417.84,32.94 1424.30,31.43 1430.77,29.82 1453.90,24.20 1463.13,28.57 1473.64,35.03 1519.69,60.61 1525.36,63.99 1537.44,70.72 1550.29,77.94 1564.69,86.34 1615.43,115.69 1684.26,156.87"/>
    <poly id="11853257" type="unknown" color="51,128,255" fill="0" layer="-1.00" shape="933.69,877.08 918.46,895.42 915.83,902.00 894.10,928.35 910.65,944.50"/>
    <poly id="11853299" type="unknown" color="51,128,255" fill="0" layer="-1.00" shape="925.33,1360.21 968.62,1238.32 1010.62,1116.74 1043.75,1016.36 1114.66,812.36 1115.51,782.84 1116.56,762.87 1121.14,664.11"/>
    <poly id="118674282" type="unknown" color="51,128,255" fill="1" layer="-1.00" shape="1535.91,859.21 1538.46,854.56 1537.62,854.14 1542.21,845.71 1546.30,837.25 1547.94,837.88 1550.63,833.25 1559.10,836.83 1567.82,840.62 1585.17,849.22 1604.91,858.51 1599.88,870.06 1592.75,885.39 1588.91,892.72 1585.35,891.13 1581.90,898.35 1576.05,912.60 1573.77,917.12 1566.08,913.91 1565.55,914.75 1556.57,910.56 1556.91,910.00 1553.96,908.50 1559.35,896.16 1556.24,894.69 1560.32,886.03 1563.67,887.09 1566.47,880.78 1571.85,882.77 1574.07,877.92 1568.87,875.29 1567.90,875.74 1566.98,876.19 1566.13,876.39 1565.61,876.52 1564.82,876.44 1564.09,876.15 1563.24,875.74 1562.90,875.40 1562.51,874.94 1562.29,874.48 1562.29,874.08 1562.13,873.51 1562.08,872.67 1562.15,871.93 1562.26,871.36 1547.73,864.79 1547.27,865.97 1535.43,860.51 1535.91,859.21"/>
    <poly id="118674552" type="unknown" color="51,128,255" fill="0" layer="-1.00" shape="1495.05,884.59 1500.70,887.19 1507.16,889.98 1520.73,896.49 1532.49,902.07 1540.27,906.10 1548.01,910.18 1558.72,915.29 1570.93,921.57"/>
    <poly id="118674556" type="unknown" color="51,128,255" fill="0" layer="-1.00" shape="1508.97,855.03 1514.38,856.98 1533.15,866.04 1541.07,869.99 1548.28,875.28 1552.28,883.50 1551.52,889.60 1547.82,894.76 1544.32,900.41 1540.27,906.10"/>
    <poly id="118675283" type="building" color="255,230,230" fill="1" layer="2.00" shape="1085.86,703.44 1086.99,689.08 1097.17,689.99 1096.80,693.74 1101.10,694.20 1100.33,701.24 1095.89,700.66 1095.48,704.55 1085.86,703.44"/>
    <poly id="118675284" type="unknown" color="51,128,255" fill="1" layer="-1.00" shape="1039.61,684.25 1048.26,672.50 1067.28,686.37 1071.08,681.20 1082.21,689.32 1078.37,694.54 1084.36,698.91 1077.55,708.15 1071.73,703.91 1065.89,711.84 1054.35,703.42 1058.38,697.94 1039.61,684.25"/>
    <poly id="11944354" type="unknown" color="51,128,255" fill="0" layer="-1.00" shape="1467.97,615.77 1474.65,568.75 1476.71,554.23 1469.06,525.13 1454.81,498.86 1429.51,462.75"/>
    <poly id="11947729" type="unknown" color="51,128,255" fill="0" layer="-1.00" shape="881.19,1064.03 886.45,1054.20 887.89,1046.10 886.16,1035.12 868.53,991.79 859.26,983.17"/>
    <poly id="11949370" type="unknown" color="51,128,255" fill="0" layer="-1.00" shape="1495.05,884.59 1434.88,873.62 1245.91,855.11"/>
    <poly id="11955884" type="unknown" color="51,128,255" fill="0" layer="-1.00" shape="857.65,635.55 822.58,736.86"/>
    <poly id="11956950" type="unknown" color="51,128,255" fill="0" layer="-1.00" shape="1018.83,652.96 1007.73,759.13 904.71,839.38"/>
    <poly id="11960711" type="unknown" color="51,128,255" fill="0" layer="-1.00" shape="713.57,619.42 682.40,684.96 675.57,699.05 664.55,722.23 660.66,730.11 651.50,749.42 560.04,935.48 449.77,1165.81 422.61,1219.55 334.42,1398.29"/>
    <poly id="11961801" type="unknown" color="51,128,255" fill="0" layer="-1.00" shape="1615.43,115.69 1648.07,58.53"/>
    <poly id="121051124" type="unknown" color="51,128,255" fill="0" layer="-1.00" shape="622.24,606.44 620.44,627.41 618.37,651.52 616.69,660.06 614.35,671.99 613.03,678.71 612.57,679.74 608.07,689.73"/>
    <poly id="121051126" type="unknown" color="51,128,255" fill="1" layer="-1.00" shape="550.26,688.99 564.72,659.60 568.14,660.91 580.42,666.51 613.03,678.71 617.94,679.14 616.96,698.08 601.87,690.96 592.64,710.44 550.26,688.99"/>
    <poly id="121051189" type="unknown" color="51,128,255" fill="0" layer="-1.00" shape="556.91,684.66 560.56,677.03 563.21,671.14 597.57,685.38 608.07,689.73"/>
    <poly id="121051190" type="unknown" color="51,128,255" fill="0" layer="-1.00" shape="556.91,684.66 590.63,699.45 597.57,685.38"/>
    <poly id="121051191" type="unknown" color="51,128,255" fill="0" layer="-1.00" shape="549.02,671.16 560.56,677.03"/>
    <poly id="121051281" type="unknown" color="51,128,255" fill="0" layer="-1.00" shape="620.44,627.41 625.89,627.88 647.04,629.67 664.08,631.12 670.71,634.38 669.99,645.52 672.40,647.35 674.13,650.59 674.86,655.00 674.71,658.75 673.31,661.68 672.05,663.60 670.02,665.40 667.09,666.39 665.75,680.77 668.41,681.10"/>
    <poly id="121051283" type="unknown" color="51,128,255" fill="0" layer="-1.00" shape="647.70,622.46 647.04,629.67 646.78,632.44"/>
    <poly id="121051284" type="unknown" color="51,128,255" fill="0" layer="-1.00" shape="668.41,681.10 675.35,682.10"/>
    <poly id="121051329" type="building" color="255,230,230" fill="1" layer="2.00" shape="400.54,247.91 403.09,248.79 403.38,247.89 408.26,249.46 413.01,251.00 412.60,252.01 415.95,253.19 413.06,261.20 414.29,263.82 413.46,265.97 413.45,267.32 412.03,271.39 410.21,276.69 409.40,277.30 409.21,279.23 407.21,280.39 404.63,287.39 402.68,288.55 397.43,289.57 395.19,291.70 391.84,290.58 391.49,287.40 389.07,284.48 387.73,282.59 387.81,280.67 389.52,275.36 389.99,273.90 388.15,271.38 387.23,272.23 384.64,269.42 385.68,268.36 384.84,267.38 382.67,267.98 377.85,266.28 376.62,264.84 375.66,259.74 376.13,258.15 379.98,254.91 381.86,254.77 386.39,256.30 387.63,257.61 387.62,258.35 388.87,258.14 388.76,257.34 392.24,256.70 392.75,257.38 394.57,257.24 397.01,255.41 400.54,247.91"/>
    <poly id="121051554" type="unknown" color="51,128,255" fill="0" layer="-1.00" shape="452.42,411.25 456.35,414.90"/>
    <poly id="121051555" type="unknown" color="51,128,255" fill="0" layer="-1.00" shape="463.00,449.53 465.98,446.79"/>
    <poly id="121051838" type="unknown" color="51,128,255" fill="1" layer="-1.00" shape="374.09,705.71 381.55,712.84 384.39,715.75 384.53,715.73 385.22,716.56 386.15,715.73 388.19,715.30 389.72,715.97 391.04,714.66 390.84,713.32 392.91,711.16 394.91,710.76 395.95,709.59 395.79,707.61 396.37,706.78 395.76,706.07 397.03,704.36 384.99,693.02 386.89,690.98 374.69,678.91 374.12,679.44 373.22,678.73 371.27,680.29 367.44,676.36 366.64,677.34 363.63,676.92 360.08,673.81 353.18,680.30 357.05,684.82 356.36,685.38 356.98,686.46 355.65,687.81 355.58,688.95 344.29,700.76 345.75,702.36 346.02,703.50 346.64,703.85 348.17,704.40 361.84,717.45 374.09,705.71"/>
    <poly id="121051839" type="building" color="255,230,230" fill="1" layer="2.00" shape="381.55,712.84 384.53,715.73 380.28,720.09 377.29,717.20 381.55,712.84"/>
    <poly id="121051875" type="unknown" color="51,128,255" fill="0" layer="-1.00" shape="351.49,732.55 355.46,728.11 358.74,724.41 368.98,714.27 371.57,712.93 373.55,712.89 376.13,713.39 378.08,714.92 383.28,720.78 384.34,722.74 384.31,724.77 383.86,725.98 381.96,728.57 372.97,737.87 368.92,742.45 365.55,746.50"/>
    <poly id="121053963" type="building" color="255,230,230" fill="1" layer="2.00" shape="649.34,793.72 650.86,790.58 652.66,791.46 655.36,785.89 677.85,796.72 672.74,807.26 674.07,807.90 672.01,812.16 670.68,811.52 668.95,815.09 670.11,815.64 665.26,825.66 660.37,823.30 647.79,849.25 665.29,857.67 667.60,852.90 678.78,858.28 671.28,873.75 674.72,875.40 672.39,880.21 671.18,882.70 678.40,886.18 664.31,915.26 630.18,898.84 632.20,894.68 626.66,892.02 625.66,894.09 608.02,885.61 620.79,859.25 619.67,858.72 628.70,840.06 629.82,840.61 646.61,805.97 643.80,804.62 644.94,802.27 644.01,801.25 643.34,800.33 643.01,799.42 642.79,798.18 642.75,797.21 642.99,796.36 643.33,795.58 643.89,794.82 644.58,794.14 645.39,793.58 646.25,793.32 647.31,793.25 648.42,793.46 649.34,793.72"/>
    <poly id="121054524" type="unknown" color="51,128,255" fill="0" layer="-1.00" shape="502.30,465.57 533.69,470.20 589.08,480.45 591.30,480.39 644.44,484.15 669.42,486.66 672.61,486.98 676.80,487.41 678.12,487.57 718.30,492.47 727.14,493.55"/>
    <poly id="121054525" type="unknown" color="51,128,255" fill="1" layer="-1.00" shape="666.28,340.08 668.93,341.31 668.58,342.15 672.19,345.11 673.32,345.56 678.08,345.82 678.33,345.20 680.98,346.14 683.82,337.74 681.21,336.75 681.61,335.44 678.93,333.27 677.34,332.45 672.51,331.84 672.10,332.84 669.44,331.95 666.28,340.08"/>
    <poly id="121054622" type="unknown" color="51,128,255" fill="1" layer="-1.00" shape="616.88,353.03 618.05,335.26 621.62,335.42 621.71,333.90 658.40,337.04 654.85,372.91 651.37,405.77 627.76,403.70 630.91,374.67 631.10,372.89 619.02,372.04 620.58,357.96 619.71,357.89 619.90,356.47 616.65,356.10 616.88,353.03"/>
    <poly id="121054656" type="unknown" color="51,128,255" fill="1" layer="-1.00" shape="612.38,372.39 607.68,413.73 634.35,416.74 645.03,418.22 651.57,418.88 676.97,420.94 677.47,416.92 678.11,416.25 682.93,416.69 688.15,366.06 672.87,364.35 674.55,346.64 669.96,345.11 667.08,343.43 665.57,341.83 665.31,339.95 668.58,332.11 661.74,329.03 658.77,334.48 658.40,337.04 654.85,372.91 651.37,405.77 627.76,403.70 630.91,374.67 612.38,372.39"/>
    <poly id="121054679" type="unknown" color="51,128,255" fill="0" layer="-1.00" shape="683.25,430.01 683.72,427.20 690.11,366.74"/>
    <poly id="121054817" type="building" color="255,230,230" fill="1" layer="2.00" shape="694.21,420.30 694.78,416.23 692.56,415.97 692.75,414.33 691.72,414.15 692.15,411.77 696.75,412.33 727.17,416.04 725.97,427.53 697.52,424.64 697.89,420.79 694.21,420.30"/>
    <poly id="121056724" type="unknown" color="51,128,255" fill="0" layer="-1.00" shape="351.38,393.06 366.64,375.93 384.05,357.74 389.93,351.02 404.37,336.73 412.91,327.79 425.39,314.27 420.05,308.93 423.80,304.61 415.13,297.03"/>
    <poly id="121056726" type="unknown" color="51,128,255" fill="0" layer="-1.00" shape="389.93,351.02 387.34,348.14"/>
    <poly id="121059641" type="unknown" color="51,128,255" fill="0" layer="-1.00" shape="349.86,264.14 365.21,276.73 390.92,299.29 399.79,300.76"/>
    <poly id="132216462" type="unknown" color="51,128,255" fill="0" layer="-1.00" shape="743.69,276.91 760.16,282.80"/>
    <poly id="132216463" type="unknown" color="51,128,255" fill="0" layer="-1.00" shape="805.94,217.43 805.97,228.95 804.22,242.30 800.69,252.23 794.46,259.63 786.66,265.43 768.68,274.30"/>
    <poly id="132216464" type="unknown" color="51,128,255" fill="0" layer="-1.00" shape="696.03,191.22 689.80,208.87 668.48,201.18 674.62,183.64 696.03,191.22 700.65,192.85 763.65,213.19"/>
    <poly id="132216465" type="unknown" color="51,128,255" fill="0" layer="-1.00" shape="849.29,297.67 805.94,217.43"/>
    <poly id="152567349" type="building" color="255,230,230" fill="1" layer="2.00" shape="757.48,614.07 816.33,620.66 817.22,608.75 810.11,607.90 814.38,572.82 800.99,570.85 797.63,604.57 779.54,602.64 782.66,569.81 769.02,568.06 764.53,602.46 757.25,601.92 756.56,613.83 757.48,614.07"/>
    <poly id="154108395" type="building" color="255,230,230" fill="1" layer="2.00" shape="516.51,462.98 525.26,441.23 534.12,419.03 590.44,425.84 584.56,470.93 516.51,462.98"/>
    <poly id="154244846" type="unknown" color="51,128,255" fill="1" layer="-1.00" shape="533.03,-39.44 551.53,-41.24 592.82,-25.32 621.19,42.54 599.19,54.12 595.17,46.63 585.40,52.57 589.81,59.25 564.70,71.72 506.13,91.57 499.58,68.22 487.62,72.06 483.33,60.73 473.36,48.68 440.38,51.77 419.99,53.85 392.83,45.11 372.00,62.67 326.16,189.10 323.58,204.16 558.46,287.14 516.70,408.50 596.29,420.75 589.08,480.45 502.30,465.57 495.97,464.64 463.33,554.64 462.20,576.96 489.20,601.76 501.01,603.71 476.99,669.89 446.14,662.73 429.34,659.81 417.10,694.10 368.01,674.62 359.98,666.07 369.46,655.63 365.66,651.95 367.87,647.88 331.58,616.96 284.18,660.50 230.22,610.02 227.51,605.75 318.27,512.72 252.56,452.11 269.64,431.47 301.83,395.36 240.58,338.78 220.91,320.31 154.31,255.45 6.26,120.00 -100.34,198.59 -16.77,277.01 17.75,243.40 55.66,277.52 99.10,230.47 139.41,268.00 76.45,337.07 34.04,381.90 6.94,407.06 78.88,478.00 4.88,552.80 -3.84,557.57 -41.29,567.10 -66.58,595.81 -94.66,633.09 -105.32,664.87 -121.81,684.19 -115.05,736.00 -106.32,767.19 -138.61,723.39 -148.90,694.38 -182.05,676.91 -191.74,666.87 -214.52,640.29 -224.82,574.12 -232.35,519.80 -235.05,501.93 -237.05,488.70 -238.27,480.60 -253.01,456.86 -283.31,440.65 -332.45,438.96 -335.56,458.05 -330.25,487.93 -412.21,516.04 -462.82,529.05 -511.11,507.76 -518.14,497.72 -563.96,546.62 -603.59,595.51 -591.57,605.92 -601.59,622.66 -574.17,643.20 -570.21,658.45 -497.44,725.00 -432.31,730.82 -422.56,810.44 -589.50,809.73 -619.82,805.88 -614.23,786.90 -621.37,775.39 -691.00,702.77 -712.66,617.35 -711.04,553.22 -703.36,524.49 -712.92,509.66 -750.14,492.55 -808.80,448.19 -846.18,425.60 -954.23,348.29 -956.97,255.63 -926.63,240.65 -877.89,233.97 -840.34,229.44 -825.58,237.86 -768.08,266.06 -755.10,276.35 -714.47,195.43 -705.89,174.79 -698.62,162.95 -654.98,207.09 -603.26,164.78 -621.96,143.66 -610.08,62.46 -598.91,11.42 -568.98,16.34 -511.22,96.64 -400.92,21.89 -331.52,-23.10 -231.97,-95.72 -168.32,-33.48 -202.47,-8.89 -174.14,36.04 -240.28,76.81 -295.34,-0.73 -319.57,14.50 -344.29,29.08 -325.23,63.16 -349.74,81.07 -342.05,92.78 -319.60,124.48 -332.65,134.30 -268.41,223.12 -256.59,230.90 -205.70,190.43 -100.27,123.43 -35.34,96.10 13.73,52.96 25.50,64.45 36.83,75.63 63.92,47.34 73.61,38.89 48.29,15.30 114.54,-52.49 85.01,-81.47 109.14,-106.28 117.68,-114.89 140.91,-92.96 147.64,-99.76 122.78,-125.25 130.16,-132.49 136.18,-126.24 148.78,-139.64 143.89,-145.60 150.55,-151.06 174.05,-126.56 163.22,-115.68 200.41,-79.51 206.08,-84.82 174.63,-115.91 179.45,-120.31 215.32,-85.97 221.29,-91.28 154.68,-155.47 161.05,-161.74 136.39,-184.85 169.35,-217.32 188.14,-198.69 210.51,-219.74 237.57,-192.61 224.93,-180.05 265.04,-139.98 270.76,-145.63 261.06,-154.96 267.74,-162.03 244.27,-185.77 262.91,-204.64 286.30,-181.07 294.03,-190.34 324.63,-160.66 287.28,-133.84 271.71,-119.73 291.38,-93.97 327.22,-100.57 402.79,-99.36 399.04,-68.82 391.19,-38.40 396.36,-26.81 406.05,-1.08 399.83,3.19 410.13,26.35 417.33,40.66 448.39,36.13 472.14,27.45 492.88,2.08 496.90,-17.59 507.48,-21.83 533.03,-39.44"/>
    <poly id="154256411" type="unknown" color="51,128,255" fill="0" layer="-1.00" shape="399.79,300.76 415.13,297.03"/>
    <poly id="154257481" type="building" color="255,230,230" fill="1" layer="2.00" shape="562.08,246.64 596.81,258.80 605.56,261.85 602.65,270.10 626.71,278.52 629.26,271.31 637.15,274.06 643.81,255.20 642.13,254.62 654.20,220.38 671.22,172.10 671.87,170.24 679.73,172.99 685.20,157.48 660.17,148.72 663.45,139.41 675.20,143.53 681.24,126.40 659.55,118.81 660.30,116.47 660.38,114.55 659.63,110.11 658.94,107.11 657.29,104.57 652.43,101.11 647.01,100.63 641.49,101.51 637.06,105.21 635.72,107.58 634.68,110.39 616.97,103.97 610.53,122.23 623.76,126.86 621.49,133.32 629.24,136.03 606.67,200.05 581.60,191.28 562.08,246.64"/>
    <poly id="154257484" type="building" color="255,230,230" fill="1" layer="2.00" shape="519.74,231.89 530.31,235.60 527.65,243.18 551.68,251.59 554.16,244.55 561.86,247.24 562.08,246.64 581.60,191.28 543.20,177.85 530.27,214.52 526.35,213.15 519.74,231.89"/>
    <poly id="154258186" type="unknown" color="51,128,255" fill="1" layer="-1.00" shape="369.73,456.89 435.84,522.03 455.42,540.17 463.40,538.67 470.89,520.63 446.41,455.99 425.72,435.57 367.03,378.22 353.19,393.47 362.07,412.16 370.27,430.84 371.79,436.28 369.73,456.89"/>
    <poly id="154258379" type="unknown" color="51,128,255" fill="1" layer="-1.00" shape="370.24,375.54 378.33,384.25 418.36,423.47 438.22,417.81 439.64,412.62 443.11,408.13 448.63,402.98 452.99,399.86 454.82,399.43 455.92,401.71 460.17,389.07 462.12,378.22 413.32,330.28 401.80,342.38 401.77,344.86 404.22,349.43 386.49,367.12 380.62,363.65 370.24,375.54"/>
    <poly id="154258438" type="building" color="255,230,230" fill="1" layer="2.00" shape="459.00,277.25 466.28,279.58 467.68,274.86 460.86,272.56 459.00,277.25"/>
    <poly id="154258946" type="unknown" color="51,128,255" fill="1" layer="-1.00" shape="444.33,419.29 447.11,421.85 446.80,439.10 446.75,450.82 421.05,424.83 444.33,419.29"/>
    <poly id="154258947" type="unknown" color="51,128,255" fill="1" layer="-1.00" shape="461.98,447.45 464.05,445.43 463.04,443.83 465.47,440.80 467.06,440.82 468.90,438.69 462.72,433.07 459.12,429.96 457.31,428.70 457.43,428.02 455.41,426.17 454.51,424.92 454.07,423.67 451.91,423.30 452.02,433.05 452.79,435.55 453.60,437.21 454.76,440.48 461.98,447.45"/>
    <poly id="154258948" type="unknown" color="51,128,255" fill="1" layer="-1.00" shape="464.36,380.29 489.33,404.83 460.89,404.94 460.02,401.76 464.36,380.29"/>