<?xml version="1.0" encoding="UTF-8"?>

<!-- generated on Wed 20 Apr 2016 09:22:10 PM EDT by Netedit Version 0.25.0
<?xml version="1.0" encoding="UTF-8"?>

<configuration xmlns:xsi="http://www.w3.org/2001/XMLSchema-instance" xsi:noNamespaceSchemaLocation="http://sumo.dlr.de/xsd/netedit.exeConfiguration.xsd">

    <input>
        <sumo-net-file value="cmu.net.xml"/>
    </input>

    <output>
        <output-file value="cmu.net.xml"/>
    </output>

    <processing>
        <no-turnarounds value="true"/>
        <offset.disable-normalization value="true"/>
        <lefthand value="false"/>
        <junctions.corner-detail value="0"/>
    </processing>

    <visualisation>
        <registry-viewport value="true"/>
    </visualisation>

</configuration>
-->

<net version="0.25" xmlns:xsi="http://www.w3.org/2001/XMLSchema-instance" xsi:noNamespaceSchemaLocation="http://sumo.dlr.de/xsd/net_file.xsd">

    <location netOffset="-588414.20,-4477276.14" convBoundary="0.00,0.00,3102.56,1771.49" origBoundary="-79.957464,40.440934,-79.920715,40.457139" projParameter="+proj=utm +zone=17 +ellps=WGS84 +datum=WGS84 +units=m +no_defs"/>

    <edge id=":104202187_0" function="internal">
        <lane id=":104202187_0_0" index="0" speed="13.89" length="6.35" shape="1423.41,323.84 1429.35,322.55"/>
        <lane id=":104202187_0_1" index="1" speed="13.89" length="6.35" shape="1424.07,327.07 1430.06,325.77"/>
        <lane id=":104202187_0_2" index="2" speed="13.89" length="6.35" shape="1424.74,330.30 1430.77,329.00"/>
        <lane id=":104202187_0_3" index="3" speed="13.89" length="6.35" shape="1424.74,330.30 1431.48,332.22"/>
    </edge>
    <edge id=":104202187_4" function="internal">
        <lane id=":104202187_4_0" index="0" speed="13.89" length="5.26" shape="1425.40,333.53 1426.70,333.48 1427.80,333.89 1428.72,334.76 1429.45,336.10"/>
    </edge>
    <edge id=":104383352_0" function="internal">
        <lane id=":104383352_0_0" index="0" speed="13.89" length="6.38" shape="1309.77,347.93 1315.74,346.60"/>
        <lane id=":104383352_0_1" index="1" speed="13.89" length="6.38" shape="1310.45,351.15 1316.47,349.81"/>
        <lane id=":104383352_0_2" index="2" speed="13.89" length="6.38" shape="1311.14,354.38 1317.20,353.03"/>
        <lane id=":104383352_0_3" index="3" speed="13.89" length="6.38" shape="1311.14,354.38 1317.93,356.25"/>
    </edge>
    <edge id=":104383352_4" function="internal">
        <lane id=":104383352_4_0" index="0" speed="13.89" length="5.33" shape="1311.83,357.61 1313.11,357.55 1314.23,357.96 1315.19,358.83 1315.99,360.17"/>
    </edge>
    <edge id=":104472678_0" function="internal">
        <lane id=":104472678_0_0" index="0" speed="13.89" length="7.55" shape="1671.89,587.04 1674.41,587.21 1675.55,586.68 1675.31,585.45 1673.70,583.51"/>
    </edge>
    <edge id=":104472678_1" function="internal">
        <lane id=":104472678_1_0" index="0" speed="13.89" length="8.49" shape="1671.89,587.04 1680.27,588.44"/>
    </edge>
    <edge id=":104507069_0" function="internal">
        <lane id=":104507069_0_0" index="0" speed="13.89" length="4.99" shape="445.86,238.30 447.20,238.53 448.30,238.28 449.17,237.55 449.80,236.34"/>
    </edge>
    <edge id=":104507069_1" function="internal">
        <lane id=":104507069_1_0" index="0" speed="13.89" length="6.14" shape="445.86,238.30 451.66,240.30"/>
    </edge>
    <edge id=":104507077_0" function="internal">
        <lane id=":104507077_0_0" index="0" speed="13.89" length="7.78" shape="488.90,109.55 496.66,109.07"/>
    </edge>
    <edge id=":104507077_1" function="internal">
        <lane id=":104507077_1_0" index="0" speed="13.89" length="2.67" shape="488.90,109.55 490.29,110.07 490.88,110.78 490.82,111.04"/>
    </edge>
    <edge id=":104507077_4" function="internal">
        <lane id=":104507077_4_0" index="0" speed="13.89" length="2.15" shape="490.82,111.04 490.66,111.68 489.65,112.76"/>
    </edge>
    <edge id=":104507077_2" function="internal">
        <lane id=":104507077_2_0" index="0" speed="13.89" length="5.94" shape="492.48,115.93 492.86,114.17 492.51,113.05 491.44,112.58 489.65,112.76"/>
    </edge>
    <edge id=":104507077_3" function="internal">
        <lane id=":104507077_3_0" index="0" speed="13.89" length="8.19" shape="492.48,115.93 493.54,113.24 494.59,111.20 495.63,109.81 496.66,109.07"/>
    </edge>
    <edge id=":104524752_0" function="internal">
        <lane id=":104524752_0_0" index="0" speed="13.89" length="6.22" shape="1761.20,398.45 1766.53,401.68"/>
        <lane id=":104524752_0_1" index="1" speed="13.89" length="6.22" shape="1759.50,401.28 1764.81,404.49"/>
    </edge>
    <edge id=":104524752_2" function="internal">
        <lane id=":104524752_2_0" index="0" speed="13.89" length="5.08" shape="1759.50,401.28 1760.54,402.14 1761.06,403.15 1761.08,404.32 1760.58,405.65"/>
    </edge>
    <edge id=":104527838_0" function="internal">
        <lane id=":104527838_0_0" index="0" speed="13.89" length="6.20" shape="1553.06,493.15 1551.32,487.20"/>
    </edge>
    <edge id=":104527838_1" function="internal">
        <lane id=":104527838_1_0" index="0" speed="13.89" length="5.15" shape="1553.06,493.15 1552.89,491.84 1553.21,490.73 1554.00,489.81 1555.27,489.10"/>
    </edge>
    <edge id=":104527844_0" function="internal">
        <lane id=":104527844_0_0" index="0" speed="13.89" length="7.18" shape="1651.21,478.69 1653.01,477.98 1654.35,476.92 1655.25,475.49 1655.70,473.70"/>
    </edge>
    <edge id=":104527844_1" function="internal">
        <lane id=":104527844_1_0" index="0" speed="13.89" length="7.36" shape="1655.18,481.04 1655.70,473.70"/>
    </edge>
    <edge id=":104538887_0" function="internal">
        <lane id=":104538887_0_0" index="0" speed="13.41" length="5.54" shape="1717.11,723.12 1721.61,719.88"/>
    </edge>
    <edge id=":104538887_1" function="internal">
        <lane id=":104538887_1_0" index="0" speed="15.65" length="5.00" shape="1717.11,723.12 1722.08,723.66"/>
        <lane id=":104538887_1_1" index="1" speed="15.65" length="5.00" shape="1716.76,726.40 1721.73,726.94"/>
        <lane id=":104538887_1_2" index="2" speed="15.65" length="5.00" shape="1716.41,729.69 1721.38,730.22"/>
        <lane id=":104538887_1_3" index="3" speed="15.65" length="5.00" shape="1716.06,732.97 1721.03,733.50"/>
    </edge>
    <edge id=":104538894_0" function="internal">
        <lane id=":104538894_0_0" index="0" speed="12.54" length="7.11" shape="1776.36,695.51 1783.31,697.04"/>
    </edge>
    <edge id=":104538894_1" function="internal">
        <lane id=":104538894_1_0" index="0" speed="11.18" length="7.54" shape="1776.22,699.61 1783.31,697.04"/>
    </edge>
    <edge id=":104547856_0" function="internal">
        <lane id=":104547856_0_0" index="0" speed="15.65" length="0.10" shape="1966.89,792.49 1966.83,792.47"/>
        <lane id=":104547856_0_1" index="1" speed="15.65" length="0.10" shape="1965.59,795.52 1965.57,795.51"/>
        <lane id=":104547856_0_2" index="2" speed="15.65" length="0.10" shape="1964.29,798.56 1964.30,798.56"/>
        <lane id=":104547856_0_3" index="3" speed="15.65" length="0.10" shape="1962.99,801.59 1963.04,801.61"/>
    </edge>
    <edge id=":104583190_0" function="internal">
        <lane id=":104583190_0_0" index="0" speed="13.89" length="19.48" shape="1566.80,286.14 1571.19,288.05 1575.51,288.37 1579.78,287.11 1583.98,284.26"/>
        <lane id=":104583190_0_1" index="1" speed="13.89" length="19.48" shape="1566.80,286.14 1572.40,288.90 1577.42,289.98 1581.86,289.40 1585.71,287.14"/>
    </edge>
    <edge id=":104583190_2" function="internal">
        <lane id=":104583190_2_0" index="0" speed="13.89" length="25.26" shape="1566.80,286.14 1570.90,288.32 1576.41,290.94 1582.77,293.98 1589.41,297.39"/>
    </edge>
    <edge id=":104583190_3" function="internal">
        <lane id=":104583190_3_0" index="0" speed="13.89" length="20.62" shape="1566.18,290.21 1571.81,289.17 1575.84,288.68 1579.49,287.47 1583.98,284.26"/>
        <lane id=":104583190_3_1" index="1" speed="13.89" length="20.62" shape="1567.00,293.41 1572.91,292.32 1577.15,291.79 1580.99,290.51 1585.71,287.14"/>
        <lane id=":104583190_3_2" index="2" speed="13.89" length="20.62" shape="1567.81,296.61 1574.01,295.46 1578.45,294.90 1582.48,293.55 1587.43,290.01"/>
        <lane id=":104583190_3_3" index="3" speed="13.89" length="20.62" shape="1568.62,299.81 1575.11,298.60 1579.76,298.02 1583.97,296.60 1589.15,292.89"/>
    </edge>
    <edge id=":104583190_7" function="internal">
        <lane id=":104583190_7_0" index="0" speed="13.89" length="19.52" shape="1569.43,303.01 1574.96,300.99 1578.95,299.12 1582.78,298.51 1587.83,300.29"/>
    </edge>
    <edge id=":104583203_0" function="internal">
        <lane id=":104583203_0_0" index="0" speed="13.89" length="6.42" shape="1714.51,370.43 1720.05,373.72"/>
        <lane id=":104583203_0_1" index="1" speed="13.89" length="6.42" shape="1712.84,373.27 1718.35,376.55"/>
    </edge>
    <edge id=":104583203_2" function="internal">
        <lane id=":104583203_2_0" index="0" speed="13.89" length="5.46" shape="1714.36,378.29 1714.90,376.81 1715.74,376.02 1716.89,375.94 1718.35,376.55"/>
    </edge>
    <edge id=":104585558_0" function="internal">
        <lane id=":104585558_0_0" index="0" speed="13.89" length="6.51" shape="1385.25,1109.81 1386.54,1109.95 1387.67,1109.61 1388.64,1108.80 1389.44,1107.51"/>
        <lane id=":104585558_0_1" index="1" speed="13.89" length="6.51" shape="1385.25,1109.81 1387.94,1110.37 1390.03,1110.41 1391.52,1109.93 1392.42,1108.92"/>
    </edge>
    <edge id=":104585558_2" function="internal">
        <lane id=":104585558_2_0" index="0" speed="13.89" length="8.98" shape="1385.25,1109.81 1393.92,1113.04"/>
        <lane id=":104585558_2_1" index="1" speed="13.89" length="8.98" shape="1384.37,1112.99 1392.53,1116.04"/>
    </edge>
    <edge id=":104585569_0" function="internal">
        <lane id=":104585569_0_0" index="0" speed="13.89" length="5.01" shape="1438.39,996.80 1439.70,997.21 1440.82,997.09 1441.76,996.46 1442.51,995.31"/>
    </edge>
    <edge id=":104585569_1" function="internal">
        <lane id=":104585569_1_0" index="0" speed="13.89" length="6.22" shape="1439.87,1000.93 1442.51,995.31"/>
        <lane id=":104585569_1_1" index="1" speed="13.89" length="6.22" shape="1442.86,1002.35 1445.50,996.70"/>
    </edge>
    <edge id=":104585578_0" function="internal">
        <lane id=":104585578_0_0" index="0" speed="13.89" length="6.16" shape="1472.97,929.72 1475.51,924.14"/>
        <lane id=":104585578_0_1" index="1" speed="13.89" length="6.16" shape="1475.96,931.11 1478.52,925.49"/>
    </edge>
    <edge id=":104585578_2" function="internal">
        <lane id=":104585578_2_0" index="0" speed="13.89" length="5.02" shape="1475.96,931.11 1476.70,929.98 1477.64,929.34 1478.78,929.21 1480.12,929.57"/>
    </edge>
    <edge id=":104585589_0" function="internal">
        <lane id=":104585589_0_0" index="0" speed="13.89" length="5.32" shape="1491.93,887.51 1492.35,886.05 1492.15,884.92 1491.33,884.12 1489.90,883.64"/>
    </edge>
    <edge id=":104585589_1" function="internal">
        <lane id=":104585589_1_0" index="0" speed="13.89" length="7.08" shape="1491.93,887.51 1494.89,881.05"/>
        <lane id=":104585589_1_1" index="1" speed="13.89" length="7.08" shape="1494.94,888.86 1497.88,882.45"/>
    </edge>
    <edge id=":104585589_3" function="internal">
        <lane id=":104585589_3_0" index="0" speed="13.89" length="5.68" shape="1494.94,888.86 1495.82,887.37 1496.85,886.49 1498.04,886.23 1499.38,886.57"/>
    </edge>
    <edge id=":104585625_0" function="internal">
        <lane id=":104585625_0_0" index="0" speed="13.89" length="6.18" shape="1527.08,811.76 1529.63,806.15"/>
        <lane id=":104585625_0_1" index="1" speed="13.89" length="6.18" shape="1530.07,813.14 1532.64,807.51"/>
    </edge>
    <edge id=":104585625_2" function="internal">
        <lane id=":104585625_2_0" index="0" speed="13.89" length="5.00" shape="1530.07,813.14 1530.82,811.99 1531.75,811.35 1532.87,811.23 1534.19,811.62"/>
    </edge>
    <edge id=":104585657_0" function="internal">
        <lane id=":104585657_0_0" index="0" speed="15.65" length="9.84" shape="1567.10,707.12 1576.89,708.16"/>
        <lane id=":104585657_0_1" index="1" speed="15.65" length="9.84" shape="1566.75,710.40 1576.54,711.44"/>
        <lane id=":104585657_0_2" index="2" speed="15.65" length="9.84" shape="1566.40,713.68 1576.19,714.72"/>
        <lane id=":104585657_0_3" index="3" speed="15.65" length="9.84" shape="1566.05,716.96 1575.84,718.01"/>
    </edge>
    <edge id=":104585657_4" function="internal">
        <lane id=":104585657_4_0" index="0" speed="14.77" length="8.64" shape="1568.21,720.74 1569.82,717.91 1571.68,715.96 1573.81,714.90 1576.19,714.72"/>
        <lane id=":104585657_4_1" index="1" speed="14.77" length="8.64" shape="1571.22,722.10 1572.25,720.20 1573.36,718.89 1574.56,718.16 1575.84,718.01"/>
    </edge>
    <edge id=":104597004_0" function="internal">
        <lane id=":104597004_0_0" index="0" speed="13.89" length="4.99" shape="1553.03,620.87 1554.38,620.76 1555.38,620.24 1556.05,619.31 1556.38,617.98"/>
    </edge>
    <edge id=":104597004_1" function="internal">
        <lane id=":104597004_1_0" index="0" speed="13.89" length="6.12" shape="1553.03,620.87 1559.13,621.40"/>
    </edge>
    <edge id=":104649281_0" function="internal">
        <lane id=":104649281_0_0" index="0" speed="13.89" length="6.48" shape="521.33,893.28 525.98,897.91"/>
        <lane id=":104649281_0_1" index="1" speed="13.89" length="6.48" shape="519.08,895.69 523.61,900.21"/>
    </edge>
    <edge id=":104649281_2" function="internal">
        <lane id=":104649281_2_0" index="0" speed="13.89" length="5.51" shape="519.08,895.69 519.85,896.72 520.14,897.90 519.95,899.25 519.28,900.75"/>
    </edge>
    <edge id=":104663452_0" function="internal">
        <lane id=":104663452_0_0" index="0" speed="13.89" length="5.24" shape="574.81,602.04 576.30,601.96 577.40,601.47 578.12,600.56 578.46,599.22"/>
    </edge>
    <edge id=":104663452_1" function="internal">
        <lane id=":104663452_1_0" index="0" speed="13.89" length="6.47" shape="574.81,602.04 581.25,602.60"/>
    </edge>
    <edge id=":104663452_2" function="internal">
        <lane id=":104663452_2_0" index="0" speed="13.89" length="5.20" shape="574.81,602.04 576.23,602.36 577.13,603.06 577.51,604.14 577.37,605.59"/>
    </edge>
    <edge id=":104663459_0" function="internal">
        <lane id=":104663459_0_0" index="0" speed="13.89" length="7.42" shape="469.44,839.85 468.96,841.53 469.11,843.20 469.90,844.85 471.32,846.49"/>
    </edge>
    <edge id=":104663459_1" function="internal">
        <lane id=":104663459_1_0" index="0" speed="13.89" length="10.91" shape="469.44,839.85 468.11,842.66 467.11,844.78 466.11,846.90 464.79,849.72"/>
    </edge>
    <edge id=":104663459_2" function="internal">
        <lane id=":104663459_2_0" index="0" speed="13.89" length="8.52" shape="465.16,840.63 471.32,846.49"/>
        <lane id=":104663459_2_1" index="1" speed="13.89" length="8.52" shape="462.87,843.00 469.06,848.90"/>
    </edge>
    <edge id=":104663459_4" function="internal">
        <lane id=":104663459_4_0" index="0" speed="13.89" length="7.49" shape="462.87,843.00 464.30,844.69 465.09,846.37 465.26,848.04 464.79,849.72"/>
    </edge>
    <edge id=":104844036_0" function="internal">
        <lane id=":104844036_0_0" index="0" speed="13.89" length="0.10" shape="449.77,1165.81 449.77,1165.80"/>
    </edge>
    <edge id=":104861882_0" function="internal">
        <lane id=":104861882_0_0" index="0" speed="13.89" length="4.82" shape="406.98,46.15 407.15,44.67 407.70,43.93 408.62,43.92 409.92,44.65"/>
    </edge>
    <edge id=":104925160_0" function="internal">
        <lane id=":104925160_0_0" index="0" speed="13.89" length="0.10" shape="75.14,191.58 75.14,191.58"/>
    </edge>
    <edge id=":104930984_0" function="internal">
        <lane id=":104930984_0_0" index="0" speed="13.89" length="6.25" shape="583.85,540.88 584.52,534.66"/>
    </edge>
    <edge id=":104930984_1" function="internal">
        <lane id=":104930984_1_0" index="0" speed="13.89" length="5.05" shape="583.85,540.88 584.17,539.52 584.85,538.62 585.89,538.16 587.28,538.15"/>
    </edge>
    <edge id=":104930999_0" function="internal">
        <lane id=":104930999_0_0" index="0" speed="13.89" length="5.00" shape="717.10,554.35 718.47,554.30 719.50,553.83 720.18,552.94 720.53,551.61"/>
    </edge>
    <edge id=":104930999_1" function="internal">
        <lane id=":104930999_1_0" index="0" speed="13.89" length="6.22" shape="717.10,554.35 723.28,555.05"/>
    </edge>
    <edge id=":104930999_2" function="internal">
        <lane id=":104930999_2_0" index="0" speed="13.89" length="6.22" shape="719.86,557.80 720.53,551.61"/>
    </edge>
    <edge id=":104930999_3" function="internal">
        <lane id=":104930999_3_0" index="0" speed="13.89" length="5.02" shape="719.86,557.80 720.20,556.46 720.88,555.56 721.91,555.09 723.28,555.05"/>
    </edge>
    <edge id=":104931010_0" function="internal">
        <lane id=":104931010_0_0" index="0" speed="12.54" length="5.30" shape="874.64,572.84 876.18,572.85 877.41,572.48 878.33,571.73 878.94,570.59"/>
    </edge>
    <edge id=":104931010_1" function="internal">
        <lane id=":104931010_1_0" index="0" speed="11.18" length="6.22" shape="877.03,576.51 878.94,570.59"/>
    </edge>
    <edge id=":104991712_0" function="internal">
        <lane id=":104991712_0_0" index="0" speed="13.89" length="5.26" shape="503.49,462.31 503.18,463.76 503.45,464.87 504.30,465.64 505.73,466.07"/>
    </edge>
    <edge id=":104991712_1" function="internal">
        <lane id=":104991712_1_0" index="0" speed="13.89" length="6.29" shape="503.49,462.31 501.37,468.22"/>
    </edge>
    <edge id=":104991719_0" function="internal">
        <lane id=":104991719_0_0" index="0" speed="13.89" length="5.54" shape="587.95,480.24 589.42,480.28 590.53,479.79 591.27,478.78 591.66,477.23"/>
    </edge>
    <edge id=":104991719_1" function="internal">
        <lane id=":104991719_1_0" index="0" speed="13.89" length="6.52" shape="587.95,480.24 594.46,480.60"/>
    </edge>
    <edge id=":104991719_2" function="internal">
        <lane id=":104991719_2_0" index="0" speed="13.89" length="6.54" shape="590.88,483.72 591.66,477.23"/>
    </edge>
    <edge id=":104991719_3" function="internal">
        <lane id=":104991719_3_0" index="0" speed="13.89" length="1.79" shape="590.88,483.72 591.26,482.28 591.43,482.04"/>
    </edge>
    <edge id=":104991719_4" function="internal">
        <lane id=":104991719_4_0" index="0" speed="13.89" length="3.56" shape="591.43,482.04 591.99,481.27 593.05,480.72 594.46,480.60"/>
    </edge>
    <edge id=":104991730_0" function="internal">
        <lane id=":104991730_0_0" index="0" speed="13.89" length="5.02" shape="724.03,493.17 725.41,493.14 726.45,492.68 727.13,491.78 727.47,490.44"/>
    </edge>
    <edge id=":104991730_1" function="internal">
        <lane id=":104991730_1_0" index="0" speed="13.89" length="6.23" shape="724.03,493.17 730.23,493.87"/>
    </edge>
    <edge id=":104991730_2" function="internal">
        <lane id=":104991730_2_0" index="0" speed="13.89" length="6.21" shape="726.79,496.62 727.47,490.44"/>
    </edge>
    <edge id=":104991730_3" function="internal">
        <lane id=":104991730_3_0" index="0" speed="13.89" length="5.01" shape="726.79,496.62 727.14,495.29 727.82,494.40 728.86,493.92 730.23,493.87"/>
    </edge>
    <edge id=":104991736_0" function="internal">
        <lane id=":104991736_0_0" index="0" speed="12.54" length="5.33" shape="894.70,513.56 896.26,513.59 897.52,513.25 898.47,512.52 899.12,511.43"/>
    </edge>
    <edge id=":104991736_1" function="internal">
        <lane id=":104991736_1_0" index="0" speed="11.18" length="6.21" shape="897.02,517.27 899.12,511.43"/>
    </edge>
    <edge id=":105012936_0" function="internal">
        <lane id=":105012936_0_0" index="0" speed="13.89" length="6.89" shape="1373.64,347.67 1372.68,344.87 1372.58,342.75 1373.35,341.31 1374.97,340.55"/>
        <lane id=":105012936_0_1" index="1" speed="13.89" length="6.89" shape="1373.64,347.67 1373.23,346.23 1373.43,345.10 1374.24,344.28 1375.64,343.78"/>
    </edge>
    <edge id=":105012936_2" function="internal">
        <lane id=":105012936_2_0" index="0" speed="13.89" length="6.28" shape="1367.49,335.35 1373.64,334.08"/>
        <lane id=":105012936_2_1" index="1" speed="13.89" length="6.28" shape="1368.16,338.58 1374.31,337.31"/>
        <lane id=":105012936_2_2" index="2" speed="13.89" length="6.28" shape="1368.83,341.81 1374.97,340.55"/>
        <lane id=":105012936_2_3" index="3" speed="13.89" length="6.28" shape="1369.49,345.05 1375.64,343.78"/>
    </edge>
    <edge id=":105012943_0" function="internal">
        <lane id=":105012943_0_0" index="0" speed="13.89" length="6.30" shape="1623.53,231.75 1627.08,226.89"/>
        <lane id=":105012943_0_1" index="1" speed="13.89" length="6.30" shape="1626.18,233.72 1629.76,228.82"/>
        <lane id=":105012943_0_2" index="2" speed="13.89" length="6.30" shape="1628.82,235.69 1632.44,230.75"/>
        <lane id=":105012943_0_3" index="3" speed="13.89" length="6.30" shape="1628.82,235.69 1635.12,232.68"/>
    </edge>
    <edge id=":105012943_4" function="internal">
        <lane id=":105012943_4_0" index="0" speed="13.89" length="5.04" shape="1631.47,237.66 1632.42,236.71 1633.48,236.28 1634.63,236.38 1635.88,237.00"/>
    </edge>
    <edge id=":105012956_0" function="internal">
        <lane id=":105012956_0_0" index="0" speed="13.89" length="6.58" shape="1677.19,152.64 1679.15,153.60 1680.80,153.93 1682.13,153.65 1683.15,152.75"/>
    </edge>
    <edge id=":105012956_1" function="internal">
        <lane id=":105012956_1_0" index="0" speed="13.89" length="6.64" shape="1678.06,156.94 1683.15,152.75"/>
        <lane id=":105012956_1_1" index="1" speed="13.89" length="6.64" shape="1680.71,158.90 1685.83,154.67"/>
        <lane id=":105012956_1_2" index="2" speed="13.89" length="6.64" shape="1683.37,160.86 1688.52,156.60"/>
    </edge>
    <edge id=":105013369_0" function="internal">
        <lane id=":105013369_0_0" index="0" speed="13.89" length="6.15" shape="564.12,281.69 569.92,283.73"/>
    </edge>
    <edge id=":105013369_1" function="internal">
        <lane id=":105013369_1_0" index="0" speed="13.89" length="4.99" shape="564.12,281.69 565.31,282.34 566.03,283.21 566.25,284.32 565.99,285.66"/>
    </edge>
    <edge id=":105013377_0" function="internal">
        <lane id=":105013377_0_0" index="0" speed="13.89" length="6.28" shape="610.29,297.32 616.24,299.33"/>
    </edge>
    <edge id=":105013377_1" function="internal">
        <lane id=":105013377_1_0" index="0" speed="13.89" length="5.27" shape="612.53,301.66 612.92,300.22 613.67,299.35 614.77,299.06 616.24,299.33"/>
    </edge>
    <edge id=":105013396_0" function="internal">
        <lane id=":105013396_0_0" index="0" speed="13.89" length="9.32" shape="739.90,341.60 741.36,341.56 742.70,340.42 743.92,338.17 745.02,334.81"/>
    </edge>
    <edge id=":105013396_1" function="internal">
        <lane id=":105013396_1_0" index="0" speed="13.89" length="7.86" shape="739.90,341.60 747.87,338.70"/>
        <lane id=":105013396_1_1" index="1" speed="13.89" length="7.86" shape="739.90,341.60 747.13,341.91"/>
    </edge>
    <edge id=":105013396_3" function="internal">
        <lane id=":105013396_3_0" index="0" speed="13.89" length="16.37" shape="742.08,350.89 742.58,346.96 743.26,342.80 744.09,338.66 745.02,334.81"/>
    </edge>
    <edge id=":105013396_4" function="internal">
        <lane id=":105013396_4_0" index="0" speed="13.89" length="6.68" shape="742.08,350.89 742.61,348.06 743.50,346.15 744.76,345.18 746.39,345.13"/>
        <lane id=":105013396_4_1" index="1" speed="13.89" length="6.68" shape="742.08,350.89 742.43,349.50 743.14,348.61 744.21,348.23 745.65,348.35"/>
    </edge>
    <edge id=":105013433_0" function="internal">
        <lane id=":105013433_0_0" index="0" speed="13.89" length="7.73" shape="1227.62,378.70 1226.81,375.39 1226.83,372.97 1227.68,371.43 1229.36,370.78"/>
        <lane id=":105013433_0_1" index="1" speed="13.89" length="7.73" shape="1227.62,378.70 1227.23,376.80 1227.44,375.40 1228.26,374.49 1229.69,374.06"/>
    </edge>
    <edge id=":105013433_2" function="internal">
        <lane id=":105013433_2_0" index="0" speed="13.89" length="5.51" shape="1223.64,363.03 1228.69,364.21"/>
        <lane id=":105013433_2_1" index="1" speed="13.89" length="5.51" shape="1223.75,366.33 1229.03,367.50"/>
        <lane id=":105013433_2_2" index="2" speed="13.89" length="5.51" shape="1223.86,369.63 1229.36,370.78"/>
        <lane id=":105013433_2_3" index="3" speed="13.89" length="5.51" shape="1223.97,372.92 1229.69,374.06"/>
    </edge>
    <edge id=":105018892_0" function="internal">
        <lane id=":105018892_0_0" index="0" speed="14.77" length="5.09" shape="1146.51,662.18 1147.93,662.15 1148.95,661.67 1149.60,660.73 1149.86,659.34"/>
    </edge>
    <edge id=":105018892_1" function="internal">
        <lane id=":105018892_1_0" index="0" speed="15.65" length="6.30" shape="1146.51,662.18 1152.70,662.89"/>
        <lane id=":105018892_1_1" index="1" speed="15.65" length="6.30" shape="1146.12,665.46 1152.35,666.17"/>
        <lane id=":105018892_1_2" index="2" speed="15.65" length="6.30" shape="1145.72,668.74 1152.00,669.46"/>
        <lane id=":105018892_1_3" index="3" speed="15.65" length="6.30" shape="1145.33,672.01 1151.65,672.74"/>
    </edge>
    <edge id=":105026656_0" function="internal">
        <lane id=":105026656_0_0" index="0" speed="13.89" length="9.02" shape="824.00,732.77 823.91,734.07 824.42,735.72 825.54,737.72 827.27,740.07"/>
        <lane id=":105026656_0_1" index="1" speed="13.89" length="9.02" shape="824.00,732.77 823.27,735.58 823.14,738.08 823.62,740.26 824.69,742.13"/>
    </edge>
    <edge id=":105026656_2" function="internal">
        <lane id=":105026656_2_0" index="0" speed="13.89" length="10.68" shape="824.00,732.77 822.99,735.67 822.25,737.81 821.51,739.95 820.50,742.86"/>
    </edge>
    <edge id=":105026665_0" function="internal">
        <lane id=":105026665_0_0" index="0" speed="13.89" length="4.99" shape="908.46,836.46 907.51,837.44 907.10,838.49 907.23,839.62 907.90,840.81"/>
    </edge>
    <edge id=":105026665_1" function="internal">
        <lane id=":105026665_1_0" index="0" speed="13.89" length="6.13" shape="904.10,835.95 907.90,840.81"/>
        <lane id=":105026665_1_1" index="1" speed="13.89" length="6.13" shape="901.52,838.02 905.29,842.82"/>
    </edge>
    <edge id=":105026676_0" function="internal">
        <lane id=":105026676_0_0" index="0" speed="13.89" length="6.23" shape="1011.99,974.04 1015.86,978.90"/>
        <lane id=":105026676_0_1" index="1" speed="13.89" length="6.23" shape="1009.40,976.08 1013.28,980.96"/>
    </edge>
    <edge id=":105026676_2" function="internal">
        <lane id=":105026676_2_0" index="0" speed="13.89" length="5.24" shape="1008.91,980.89 1010.02,979.92 1011.12,979.61 1012.21,979.95 1013.28,980.96"/>
    </edge>
    <edge id=":105026691_0" function="internal">
        <lane id=":105026691_0_0" index="0" speed="13.89" length="5.92" shape="1041.64,1011.08 1042.93,1012.32 1044.06,1012.61 1045.03,1011.96 1045.83,1010.36"/>
    </edge>
    <edge id=":105026691_1" function="internal">
        <lane id=":105026691_1_0" index="0" speed="13.89" length="8.34" shape="1041.64,1011.08 1047.38,1015.65"/>
        <lane id=":105026691_1_1" index="1" speed="13.89" length="8.34" shape="1039.07,1013.14 1046.50,1018.83"/>
    </edge>
    <edge id=":105026691_3" function="internal">
        <lane id=":105026691_3_0" index="0" speed="13.89" length="11.02" shape="1042.28,1020.79 1043.27,1017.82 1044.03,1015.57 1044.81,1013.31 1045.83,1010.36"/>
    </edge>
    <edge id=":105026691_4" function="internal">
        <lane id=":105026691_4_0" index="0" speed="13.89" length="5.24" shape="1042.28,1020.79 1042.90,1019.59 1043.81,1018.86 1045.01,1018.61 1046.50,1018.83"/>
    </edge>
    <edge id=":105026703_0" function="internal">
        <lane id=":105026703_0_0" index="0" speed="13.89" length="5.14" shape="1210.60,1060.92 1212.02,1061.10 1213.11,1060.76 1213.86,1059.91 1214.28,1058.54"/>
    </edge>
    <edge id=":105026703_1" function="internal">
        <lane id=":105026703_1_0" index="0" speed="13.89" length="6.60" shape="1210.60,1060.92 1216.95,1062.66"/>
        <lane id=":105026703_1_1" index="1" speed="13.89" length="6.60" shape="1209.72,1064.10 1216.09,1065.84"/>
    </edge>
    <edge id=":105026703_3" function="internal">
        <lane id=":105026703_3_0" index="0" speed="13.89" length="9.70" shape="1212.30,1068.04 1214.28,1058.54"/>
    </edge>
    <edge id=":105026703_4" function="internal">
        <lane id=":105026703_4_0" index="0" speed="13.89" length="5.00" shape="1212.30,1068.04 1212.83,1066.77 1213.64,1065.99 1214.73,1065.68 1216.09,1065.84"/>
    </edge>
    <edge id=":105026833_0" function="internal">
        <lane id=":105026833_0_0" index="0" speed="13.89" length="0.10" shape="2096.76,1500.15 2096.76,1500.15"/>
        <lane id=":105026833_0_1" index="1" speed="13.89" length="0.10" shape="2094.96,1502.91 2094.96,1502.91"/>
    </edge>
    <edge id=":105036595_0" function="internal">
        <lane id=":105036595_0_0" index="0" speed="13.89" length="6.24" shape="641.91,965.74 647.73,968.06"/>
        <lane id=":105036595_0_1" index="1" speed="13.89" length="6.24" shape="640.71,968.81 646.49,971.11"/>
    </edge>
    <edge id=":105036595_2" function="internal">
        <lane id=":105036595_2_0" index="0" speed="13.89" length="5.02" shape="640.71,968.81 641.91,969.49 642.60,970.39 642.77,971.50 642.44,972.84"/>
    </edge>
    <edge id=":105097584_0" function="internal">