<?xml version="1.0" encoding="UTF-8"?>

<!-- generated on Wed Apr 27 18:28:30 2016 by SUMO netconvert Version 0.25.0
<?xml version="1.0" encoding="UTF-8"?>

<configuration xmlns:xsi="http://www.w3.org/2001/XMLSchema-instance" xsi:noNamespaceSchemaLocation="http://sumo.dlr.de/xsd/netconvertConfiguration.xsd">

    <input>
        <osm-files value="cmu-small.osm"/>
    </input>

    <output>
        <output-file value="cmu-small.net.xml"/>
    </output>

    <projection>
        <proj.utm value="true"/>
    </projection>

</configuration>
-->

<net version="0.25" xmlns:xsi="http://www.w3.org/2001/XMLSchema-instance" xsi:noNamespaceSchemaLocation="http://sumo.dlr.de/xsd/net_file.xsd">

    <location netOffset="-588691.62,-4477233.61" convBoundary="0.00,0.00,1543.07,1440.82" origBoundary="-79.954057,40.440934,-79.935921,40.453997" projParameter="+proj=utm +zone=17 +ellps=WGS84 +datum=WGS84 +units=m +no_defs"/>

    <type id="highway.bridleway" priority="1" numLanes="1" speed="2.78" allow="pedestrian" oneway="1" width="2.00"/>
    <type id="highway.bus_guideway" priority="1" numLanes="1" speed="8.33" allow="bus" oneway="1"/>
    <type id="highway.cycleway" priority="1" numLanes="1" speed="5.56" allow="bicycle" oneway="0" width="1.00"/>
    <type id="highway.footway" priority="1" numLanes="1" speed="8.33" allow="pedestrian" oneway="1" width="2.00"/>
    <type id="highway.ford" priority="1" numLanes="1" speed="2.78" allow="army" oneway="0"/>
    <type id="highway.living_street" priority="3" numLanes="1" speed="2.78" disallow="tram rail_urban rail rail_electric ship" oneway="0"/>
    <type id="highway.motorway" priority="13" numLanes="2" speed="44.44" allow="private emergency authority army vip passenger hov taxi bus coach delivery truck trailer motorcycle evehicle custom1 custom2" oneway="1"/>
    <type id="highway.motorway_link" priority="12" numLanes="1" speed="22.22" allow="private emergency authority army vip passenger hov taxi bus coach delivery truck trailer motorcycle evehicle custom1 custom2" oneway="1"/>
    <type id="highway.path" priority="1" numLanes="1" speed="2.78" allow="bicycle pedestrian" oneway="1" width="2.00"/>
    <type id="highway.pedestrian" priority="1" numLanes="1" speed="8.33" allow="pedestrian" oneway="1" width="2.00"/>
    <type id="highway.primary" priority="9" numLanes="2" speed="27.78" disallow="tram rail_urban rail rail_electric ship" oneway="0"/>
    <type id="highway.primary_link" priority="8" numLanes="1" speed="22.22" disallow="tram rail_urban rail rail_electric ship" oneway="0"/>
    <type id="highway.raceway" priority="14" numLanes="2" speed="83.33" allow="vip" oneway="0"/>
    <type id="highway.residential" priority="4" numLanes="1" speed="13.89" disallow="tram rail_urban rail rail_electric ship" oneway="0"/>
    <type id="highway.secondary" priority="7" numLanes="2" speed="27.78" disallow="tram rail_urban rail rail_electric ship" oneway="0"/>
    <type id="highway.secondary_link" priority="6" numLanes="1" speed="22.22" disallow="tram rail_urban rail rail_electric ship" oneway="0"/>
    <type id="highway.service" priority="2" numLanes="1" speed="5.56" allow="delivery bicycle pedestrian" oneway="0"/>
    <type id="highway.services" priority="1" numLanes="1" speed="8.33" disallow="tram rail_urban rail rail_electric ship" oneway="0"/>
    <type id="highway.stairs" priority="1" numLanes="1" speed="1.39" allow="pedestrian" oneway="1" width="2.00"/>
    <type id="highway.step" priority="1" numLanes="1" speed="1.39" allow="pedestrian" oneway="1" width="2.00"/>
    <type id="highway.steps" priority="1" numLanes="1" speed="1.39" allow="pedestrian" oneway="1" width="2.00"/>
    <type id="highway.tertiary" priority="6" numLanes="1" speed="22.22" disallow="tram rail_urban rail rail_electric ship" oneway="0"/>
    <type id="highway.tertiary_link" priority="5" numLanes="1" speed="22.22" disallow="tram rail_urban rail rail_electric ship" oneway="0"/>
    <type id="highway.track" priority="1" numLanes="1" speed="5.56" disallow="tram rail_urban rail rail_electric ship" oneway="0"/>
    <type id="highway.trunk" priority="11" numLanes="2" speed="27.78" disallow="tram rail_urban rail rail_electric bicycle pedestrian ship" oneway="0"/>
    <type id="highway.trunk_link" priority="10" numLanes="1" speed="22.22" disallow="tram rail_urban rail rail_electric bicycle pedestrian ship" oneway="0"/>
    <type id="highway.unclassified" priority="5" numLanes="1" speed="13.89" disallow="tram rail_urban rail rail_electric ship" oneway="0"/>
    <type id="highway.unsurfaced" priority="1" numLanes="1" speed="8.33" disallow="tram rail_urban rail rail_electric ship" oneway="0"/>
    <type id="railway.light_rail" priority="15" numLanes="1" speed="27.78" allow="rail_urban" oneway="1"/>
    <type id="railway.preserved" priority="15" numLanes="1" speed="27.78" allow="rail" oneway="1"/>
    <type id="railway.rail" priority="15" numLanes="1" speed="83.33" allow="rail rail_electric" oneway="1"/>
    <type id="railway.subway" priority="15" numLanes="1" speed="27.78" allow="rail_urban" oneway="1"/>
    <type id="railway.tram" priority="15" numLanes="1" speed="13.89" allow="tram" oneway="1"/>

    <edge id=":104202187_0" function="internal">
        <lane id=":104202187_0_0" index="0" disallow="tram rail_urban rail rail_electric ship" speed="16.67" length="5.77" shape="1150.60,379.51 1149.77,377.94 1148.79,376.90 1147.64,376.39 1146.33,376.41"/>
    </edge>
    <edge id=":104202187_1" function="internal">
        <lane id=":104202187_1_0" index="0" disallow="tram rail_urban rail rail_electric ship" speed="16.67" length="14.30" shape="1150.60,379.51 1149.33,375.09 1149.51,371.69 1151.16,369.31 1154.27,367.95"/>
    </edge>
    <edge id=":104202187_2" function="internal">
        <lane id=":104202187_2_0" index="0" allow="delivery bicycle pedestrian" speed="5.56" length="4.82" shape="1150.60,379.51 1150.90,378.06 1151.51,377.36 1152.43,377.44 1153.66,378.27"/>
    </edge>
    <edge id=":104202187_3" function="internal">
        <lane id=":104202187_3_0" index="0" allow="delivery bicycle pedestrian" speed="16.67" length="5.21" shape="1155.69,374.39 1154.32,374.91 1153.53,375.73 1153.31,376.85 1153.66,378.27"/>
    </edge>
    <edge id=":104202187_4" function="internal">
        <lane id=":104202187_4_0" index="0" disallow="tram rail_urban rail rail_electric ship" speed="27.78" length="9.55" shape="1155.69,374.39 1146.33,376.41"/>
        <lane id=":104202187_4_1" index="1" disallow="tram rail_urban rail rail_electric ship" speed="27.78" length="9.55" shape="1154.98,371.17 1145.67,373.18"/>
    </edge>
    <edge id=":104202187_6" function="internal">
        <lane id=":104202187_6_0" index="0" disallow="tram rail_urban rail rail_electric ship" speed="27.78" length="2.41" shape="1154.98,371.17 1153.59,370.63 1153.01,369.92"/>
    </edge>
    <edge id=":104202187_11" function="internal">
        <lane id=":104202187_11_0" index="0" speed="27.78" length="2.41" shape="1153.01,369.92 1153.24,369.02 1154.27,367.95"/>
    </edge>
    <edge id=":104202187_7" function="internal">
        <lane id=":104202187_7_0" index="0" disallow="tram rail_urban rail rail_electric ship" speed="27.78" length="9.45" shape="1144.34,366.71 1153.56,364.73"/>
        <lane id=":104202187_7_1" index="1" disallow="tram rail_urban rail rail_electric ship" speed="27.78" length="9.45" shape="1145.01,369.94 1154.27,367.95"/>
    </edge>
    <edge id=":104202187_9" function="internal">
        <lane id=":104202187_9_0" index="0" allow="delivery bicycle pedestrian" speed="16.67" length="3.87" shape="1145.01,369.94 1147.37,370.09 1148.63,370.90"/>
    </edge>
    <edge id=":104202187_10" function="internal">
        <lane id=":104202187_10_0" index="0" disallow="tram rail_urban rail rail_electric ship" speed="27.78" length="2.41" shape="1145.01,369.94 1146.38,370.50 1146.95,371.23"/>
    </edge>
    <edge id=":104202187_12" function="internal">
        <lane id=":104202187_12_0" index="0" speed="16.67" length="9.06" shape="1148.63,370.90 1149.60,371.53 1151.70,374.25 1153.66,378.27"/>
    </edge>
    <edge id=":104202187_13" function="internal">
        <lane id=":104202187_13_0" index="0" speed="27.78" length="2.41" shape="1146.95,371.23 1146.72,372.12 1145.67,373.18"/>
    </edge>
    <edge id=":104202218_0" function="internal">
        <lane id=":104202218_0_0" index="0" allow="delivery bicycle pedestrian" speed="5.56" length="6.55" shape="1229.00,381.89 1227.79,380.12 1226.55,378.93 1225.29,378.33 1224.00,378.30"/>
    </edge>
    <edge id=":104202218_1" function="internal">
        <lane id=":104202218_1_0" index="0" allow="delivery bicycle pedestrian" speed="5.56" length="12.05" shape="1229.00,381.89 1227.69,378.68 1227.89,376.13 1229.62,374.24 1232.86,373.01"/>
    </edge>
    <edge id=":104202218_2" function="internal">
        <lane id=":104202218_2_0" index="0" allow="delivery bicycle pedestrian" speed="5.56" length="4.82" shape="1229.00,381.89 1229.09,380.40 1229.59,379.63 1230.51,379.57 1231.85,380.22"/>
    </edge>
    <edge id=":104202218_3" function="internal">
        <lane id=":104202218_3_0" index="0" allow="delivery bicycle pedestrian" speed="5.56" length="5.42" shape="1233.59,376.23 1232.13,376.78 1231.35,377.63 1231.26,378.78 1231.85,380.22"/>
    </edge>
    <edge id=":104202218_4" function="internal">
        <lane id=":104202218_4_0" index="0" allow="delivery bicycle pedestrian" speed="5.56" length="9.80" shape="1233.59,376.23 1224.00,378.30"/>
    </edge>
    <edge id=":104202218_5" function="internal">
        <lane id=":104202218_5_0" index="0" allow="delivery bicycle pedestrian" speed="5.56" length="4.82" shape="1233.59,376.23 1232.20,375.69 1231.61,374.98 1231.84,374.08 1232.86,373.01"/>
    </edge>
    <edge id=":104202218_6" function="internal">
        <lane id=":104202218_6_0" index="0" allow="delivery bicycle pedestrian" speed="5.56" length="9.74" shape="1223.35,375.06 1232.86,373.01"/>
    </edge>
    <edge id=":104202218_7" function="internal">
        <lane id=":104202218_7_0" index="0" allow="delivery bicycle pedestrian" speed="5.56" length="10.65" shape="1223.35,375.06 1225.72,375.01 1227.92,375.86 1229.97,377.59 1231.85,380.22"/>
    </edge>
    <edge id=":104202218_8" function="internal">
        <lane id=":104202218_8_0" index="0" allow="delivery bicycle pedestrian" speed="5.56" length="4.82" shape="1223.35,375.06 1224.72,375.63 1225.29,376.35 1225.05,377.24 1224.00,378.30"/>
    </edge>
    <edge id=":104361652_0" function="internal">
        <lane id=":104361652_0_0" index="0" disallow="tram rail_urban rail rail_electric ship" speed="13.89" length="7.99" shape="1195.46,660.24 1187.49,659.64"/>
    </edge>
    <edge id=":104361652_1" function="internal">
        <lane id=":104361652_1_0" index="0" disallow="tram rail_urban rail rail_electric ship" speed="13.89" length="5.48" shape="1195.46,660.24 1192.55,659.64 1190.60,658.25 1190.56,658.15"/>
    </edge>
    <edge id=":104361652_2" function="internal">
        <lane id=":104361652_2_0" index="0" disallow="tram rail_urban rail rail_electric ship" speed="13.89" length="2.41" shape="1195.46,660.24 1194.28,659.35 1193.91,658.50"/>
    </edge>
    <edge id=":104361652_9" function="internal">
        <lane id=":104361652_9_0" index="0" speed="13.89" length="5.26" shape="1190.56,658.15 1189.62,656.07 1189.62,653.09"/>
    </edge>
    <edge id=":104361652_10" function="internal">
        <lane id=":104361652_10_0" index="0" speed="13.89" length="2.41" shape="1193.91,658.50 1194.38,657.70 1195.66,656.95"/>
    </edge>
    <edge id=":104361652_3" function="internal">
        <lane id=":104361652_3_0" index="0" disallow="tram rail_urban rail rail_electric ship" speed="13.89" length="5.10" shape="1192.89,653.55 1192.89,654.97 1193.35,656.00 1194.28,656.67 1195.66,656.95"/>
    </edge>
    <edge id=":104361652_4" function="internal">
        <lane id=":104361652_4_0" index="0" disallow="tram rail_urban rail rail_electric ship" speed="13.89" length="9.11" shape="1192.89,653.55 1192.20,656.39 1191.07,658.35 1189.50,659.43 1187.49,659.64"/>
    </edge>
    <edge id=":104361652_5" function="internal">
        <lane id=":104361652_5_0" index="0" disallow="tram rail_urban rail rail_electric ship" speed="13.89" length="4.82" shape="1192.89,653.55 1191.90,654.66 1191.02,654.95 1190.26,654.43 1189.62,653.09"/>
    </edge>
    <edge id=":104361652_6" function="internal">
        <lane id=":104361652_6_0" index="0" disallow="tram rail_urban rail rail_electric ship" speed="13.89" length="5.13" shape="1186.31,656.21 1187.58,656.12 1188.55,655.57 1189.23,654.56 1189.62,653.09"/>
    </edge>
    <edge id=":104361652_7" function="internal">
        <lane id=":104361652_7_0" index="0" disallow="tram rail_urban rail rail_electric ship" speed="13.89" length="9.38" shape="1186.31,656.21 1195.66,656.95"/>
    </edge>
    <edge id=":104361652_8" function="internal">
        <lane id=":104361652_8_0" index="0" disallow="tram rail_urban rail rail_electric ship" speed="13.89" length="3.44" shape="1186.31,656.21 1187.90,656.62 1188.62,657.34 1188.52,658.12"/>
    </edge>
    <edge id=":104361652_11" function="internal">
        <lane id=":104361652_11_0" index="0" speed="13.89" length="1.87" shape="1188.52,658.12 1188.49,658.34 1187.49,659.64"/>
    </edge>
    <edge id=":104361659_0" function="internal">
        <lane id=":104361659_0_0" index="0" disallow="tram rail_urban rail rail_electric ship" speed="13.89" length="4.82" shape="1141.66,655.00 1140.51,654.06 1140.19,653.19 1140.68,652.41 1141.99,651.72"/>
    </edge>
    <edge id=":104383352_0" function="internal">
        <lane id=":104383352_0_0" index="0" disallow="tram rail_urban rail rail_electric ship" speed="20.84" length="5.27" shape="1040.51,398.78 1039.12,399.31 1038.33,400.15 1038.15,401.28 1038.57,402.70"/>
    </edge>
    <edge id=":104383352_1" function="internal">
        <lane id=":104383352_1_0" index="0" disallow="tram rail_urban rail rail_electric ship" speed="27.78" length="6.23" shape="1040.51,398.78 1034.41,400.14"/>
        <lane id=":104383352_1_1" index="1" disallow="tram rail_urban rail rail_electric ship" speed="27.78" length="6.23" shape="1039.78,395.56 1033.72,396.91"/>
    </edge>
    <edge id=":104383352_3" function="internal">
        <lane id=":104383352_3_0" index="0" disallow="tram rail_urban rail rail_electric ship" speed="27.78" length="2.41" shape="1039.78,395.56 1038.39,395.03 1037.81,394.32"/>
    </edge>
    <edge id=":104383352_8" function="internal">
        <lane id=":104383352_8_0" index="0" speed="27.78" length="2.41" shape="1037.81,394.32 1038.03,393.42 1039.05,392.35"/>
    </edge>
    <edge id=":104383352_4" function="internal">
        <lane id=":104383352_4_0" index="0" disallow="tram rail_urban rail rail_electric ship" speed="27.78" length="6.15" shape="1032.34,390.46 1038.32,389.13"/>
        <lane id=":104383352_4_1" index="1" disallow="tram rail_urban rail rail_electric ship" speed="27.78" length="6.15" shape="1033.03,393.69 1039.05,392.35"/>
    </edge>
    <edge id=":104383352_6" function="internal">
        <lane id=":104383352_6_0" index="0" disallow="tram rail_urban rail rail_electric ship" speed="20.84" length="2.11" shape="1033.03,393.69 1033.86,394.15 1034.54,395.09"/>
    </edge>
    <edge id=":104383352_7" function="internal">
        <lane id=":104383352_7_0" index="0" disallow="tram rail_urban rail rail_electric ship" speed="27.78" length="2.41" shape="1033.03,393.69 1034.41,394.23 1034.99,394.96"/>
    </edge>
    <edge id=":104383352_9" function="internal">
        <lane id=":104383352_9_0" index="0" speed="20.84" length="8.63" shape="1034.54,395.09 1035.05,395.80 1036.62,398.66 1038.57,402.70"/>
    </edge>
    <edge id=":104383352_10" function="internal">
        <lane id=":104383352_10_0" index="0" speed="27.78" length="2.41" shape="1034.99,394.96 1034.76,395.85 1033.72,396.91"/>
    </edge>
    <edge id=":104396718_0" function="internal">
        <lane id=":104396718_0_0" index="0" disallow="tram rail_urban rail rail_electric ship" speed="13.89" length="1.70" shape="1421.14,614.95 1420.97,613.25"/>
    </edge>
    <edge id=":104396718_1" function="internal">
        <lane id=":104396718_1_0" index="0" disallow="tram rail_urban rail rail_electric ship" speed="13.89" length="2.41" shape="1421.14,614.95 1421.60,613.53 1422.28,612.91"/>
    </edge>
    <edge id=":104396718_4" function="internal">
        <lane id=":104396718_4_0" index="0" speed="13.89" length="2.41" shape="1422.28,612.91 1423.19,613.08 1424.32,614.05"/>
    </edge>
    <edge id=":104396718_2" function="internal">
        <lane id=":104396718_2_0" index="0" disallow="tram rail_urban rail rail_electric ship" speed="13.89" length="0.56" shape="1424.26,613.50 1424.32,614.05"/>
    </edge>
    <edge id=":104396718_3" function="internal">
        <lane id=":104396718_3_0" index="0" disallow="tram rail_urban rail rail_electric ship" speed="13.89" length="2.41" shape="1424.26,613.50 1423.35,614.67 1422.50,615.02"/>
    </edge>
    <edge id=":104396718_5" function="internal">
        <lane id=":104396718_5_0" index="0" speed="13.89" length="2.41" shape="1422.50,615.02 1421.70,614.55 1420.97,613.25"/>
    </edge>
    <edge id=":104396732_0" function="internal">
        <lane id=":104396732_0_0" index="0" disallow="tram rail_urban rail rail_electric ship" speed="13.89" length="9.56" shape="1432.12,625.29 1424.17,630.60"/>
    </edge>
    <edge id=":104396732_1" function="internal">
        <lane id=":104396732_1_0" index="0" disallow="tram rail_urban rail rail_electric ship" speed="13.89" length="5.37" shape="1432.12,625.29 1429.00,626.71 1427.06,626.63"/>
    </edge>
    <edge id=":104396732_2" function="internal">
        <lane id=":104396732_2_0" index="0" disallow="tram rail_urban rail rail_electric ship" speed="13.89" length="2.41" shape="1432.12,625.29 1430.63,625.26 1429.84,624.79"/>
    </edge>
    <edge id=":104396732_9" function="internal">
        <lane id=":104396732_9_0" index="0" speed="13.89" length="6.58" shape="1427.06,626.63 1426.45,626.61 1424.49,624.99 1423.10,621.86"/>
    </edge>
    <edge id=":104396732_10" function="internal">
        <lane id=":104396732_10_0" index="0" speed="13.89" length="2.41" shape="1429.84,624.79 1429.75,623.87 1430.35,622.51"/>
    </edge>
    <edge id=":104396732_3" function="internal">
        <lane id=":104396732_3_0" index="0" disallow="tram rail_urban rail rail_electric ship" speed="13.89" length="5.39" shape="1426.27,620.96 1426.90,622.38 1427.79,623.11 1428.94,623.15 1430.35,622.51"/>
    </edge>
    <edge id=":104396732_4" function="internal">
        <lane id=":104396732_4_0" index="0" disallow="tram rail_urban rail rail_electric ship" speed="13.89" length="10.54" shape="1426.27,620.96 1426.86,624.10 1426.71,626.75 1425.81,628.92 1424.17,630.60"/>
    </edge>
    <edge id=":104396732_5" function="internal">
        <lane id=":104396732_5_0" index="0" disallow="tram rail_urban rail rail_electric ship" speed="13.89" length="4.82" shape="1426.27,620.96 1425.82,622.38 1425.14,623.00 1424.23,622.83 1423.10,621.86"/>
    </edge>
    <edge id=":104396732_6" function="internal">
        <lane id=":104396732_6_0" index="0" disallow="tram rail_urban rail rail_electric ship" speed="13.89" length="6.50" shape="1422.25,627.92 1423.10,626.97 1423.53,625.64 1423.53,623.94 1423.10,621.86"/>
    </edge>
    <edge id=":104396732_7" function="internal">
        <lane id=":104396732_7_0" index="0" disallow="tram rail_urban rail rail_electric ship" speed="13.89" length="9.74" shape="1422.25,627.92 1430.35,622.51"/>
    </edge>
    <edge id=":104396732_8" function="internal">
        <lane id=":104396732_8_0" index="0" disallow="tram rail_urban rail rail_electric ship" speed="13.89" length="2.52" shape="1422.25,627.92 1423.74,627.87 1424.55,628.30 1424.57,628.41"/>
    </edge>
    <edge id=":104396732_11" function="internal">
        <lane id=":104396732_11_0" index="0" speed="13.89" length="2.30" shape="1424.57,628.41 1424.70,629.21 1424.17,630.60"/>
    </edge>
    <edge id=":104439711_0" function="internal">
        <lane id=":104439711_0_0" index="0" disallow="tram rail_urban rail rail_electric ship" speed="13.89" length="4.82" shape="1521.89,556.58 1522.54,557.92 1522.48,558.84 1521.71,559.34 1520.22,559.42"/>
    </edge>
    <edge id=":104472678_0" function="internal">
        <lane id=":104472678_0_0" index="0" disallow="tram rail_urban rail rail_electric ship" speed="13.89" length="14.13" shape="1403.07,632.69 1399.51,632.07 1396.10,631.50 1392.70,630.95 1389.13,630.37"/>
    </edge>
    <edge id=":104472678_1" function="internal">
        <lane id=":104472678_1_0" index="0" disallow="tram rail_urban rail rail_electric ship" speed="13.89" length="14.99" shape="1403.07,632.69 1399.68,631.40 1396.75,629.13 1394.09,626.37 1391.47,623.58"/>
    </edge>
    <edge id=":104472678_2" function="internal">
        <lane id=":104472678_2_0" index="0" disallow="tram rail_urban rail rail_electric ship" speed="13.89" length="2.41" shape="1403.07,632.69 1401.99,631.66 1401.73,630.78"/>
    </edge>
    <edge id=":104472678_9" function="internal">
        <lane id=":104472678_9_0" index="0" speed="13.89" length="2.41" shape="1401.73,630.78 1402.29,630.04 1403.65,629.45"/>
    </edge>
    <edge id=":104472678_3" function="internal">
        <lane id=":104472678_3_0" index="0" disallow="tram rail_urban rail rail_electric ship" speed="13.89" length="13.09" shape="1393.80,621.25 1396.14,623.89 1398.21,626.34 1400.53,628.29 1403.65,629.45"/>
    </edge>
    <edge id=":104472678_4" function="internal">
        <lane id=":104472678_4_0" index="0" disallow="tram rail_urban rail rail_electric ship" speed="13.89" length="19.53" shape="1393.80,621.25 1397.97,626.26 1398.58,629.45 1395.63,630.82 1389.13,630.37"/>
    </edge>
    <edge id=":104472678_5" function="internal">
        <lane id=":104472678_5_0" index="0" disallow="tram rail_urban rail rail_electric ship" speed="13.89" length="4.82" shape="1393.80,621.25 1394.10,622.70 1393.81,623.58 1392.93,623.87 1391.47,623.58"/>
    </edge>
    <edge id=":104472678_6" function="internal">
        <lane id=":104472678_6_0" index="0" disallow="tram rail_urban rail rail_electric ship" speed="13.89" length="7.55" shape="1389.67,627.11 1392.18,627.29 1393.32,626.76 1393.08,625.52 1391.47,623.58"/>
    </edge>
    <edge id=":104472678_7" function="internal">
        <lane id=":104472678_7_0" index="0" disallow="tram rail_urban rail rail_electric ship" speed="13.89" length="14.18" shape="1389.67,627.11 1393.24,627.69 1396.66,628.25 1400.08,628.82 1403.65,629.45"/>
    </edge>
    <edge id=":104472678_8" function="internal">
        <lane id=":104472678_8_0" index="0" disallow="tram rail_urban rail rail_electric ship" speed="13.89" length="2.41" shape="1389.67,627.11 1390.75,628.13 1391.03,629.01"/>
    </edge>
    <edge id=":104472678_10" function="internal">
        <lane id=":104472678_10_0" index="0" speed="13.89" length="2.41" shape="1391.03,629.01 1390.49,629.75 1389.13,630.37"/>
    </edge>
    <edge id=":104507069_0" function="internal">
        <lane id=":104507069_0_0" index="0" disallow="tram rail_urban rail rail_electric ship" speed="25.00" length="4.99" shape="174.48,277.88 174.21,279.22 174.43,280.33 175.14,281.21 176.34,281.85"/>
    </edge>
    <edge id=":104507069_1" function="internal">
        <lane id=":104507069_1_0" index="0" disallow="tram rail_urban rail rail_electric ship" speed="22.22" length="4.82" shape="174.48,277.88 173.29,278.78 172.37,278.89 171.73,278.22 171.37,276.78"/>
    </edge>
    <edge id=":104507069_2" function="internal">
        <lane id=":104507069_2_0" index="0" disallow="tram rail_urban rail rail_electric ship" speed="25.00" length="5.01" shape="167.42,278.77 168.76,279.00 169.86,278.74 170.73,278.00 171.37,276.78"/>
    </edge>
    <edge id=":104507069_3" function="internal">
        <lane id=":104507069_3_0" index="0" disallow="tram rail_urban rail rail_electric ship" speed="27.78" length="9.37" shape="167.42,278.77 176.34,281.85"/>
        <lane id=":104507069_3_1" index="1" disallow="tram rail_urban rail rail_electric ship" speed="27.78" length="9.37" shape="166.40,281.91 175.20,284.95"/>
    </edge>
    <edge id=":104507077_0" function="internal">
        <lane id=":104507077_0_0" index="0" disallow="tram rail_urban rail rail_electric ship" speed="25.00" length="10.93" shape="223.10,155.38 220.33,156.76 218.12,158.43 216.45,160.38 215.33,162.62"/>
    </edge>
    <edge id=":104507077_1" function="internal">
        <lane id=":104507077_1_0" index="0" disallow="tram rail_urban rail rail_electric ship" speed="27.78" length="14.43" shape="223.10,155.38 219.04,156.95 216.18,157.83 213.27,158.49 209.01,159.44"/>
        <lane id=":104507077_1_1" index="1" disallow="tram rail_urban rail rail_electric ship" speed="27.78" length="14.43" shape="221.85,152.32 217.93,153.84 215.18,154.68 212.36,155.32 208.26,156.23"/>
    </edge>
    <edge id=":104507077_3" function="internal">
        <lane id=":104507077_3_0" index="0" allow="bicycle" speed="16.67" length="4.40" width="1.00" shape="221.85,152.32 219.62,152.85 217.93,152.38 217.71,152.10"/>
    </edge>
    <edge id=":104507077_4" function="internal">
        <lane id=":104507077_4_0" index="0" disallow="tram rail_urban rail rail_electric ship" speed="27.78" length="2.41" shape="221.85,152.32 220.39,152.03 219.69,151.42"/>
    </edge>
    <edge id=":104507077_18" function="internal">
        <lane id=":104507077_18_0" index="0" speed="16.67" length="4.05" width="1.00" shape="217.71,152.10 216.76,150.91 216.13,148.46"/>
    </edge>
    <edge id=":104507077_19" function="internal">
        <lane id=":104507077_19_0" index="0" speed="27.78" length="2.41" shape="219.69,151.42 219.76,150.50 220.59,149.27"/>
    </edge>
    <edge id=":104507077_5" function="internal">
        <lane id=":104507077_5_0" index="0" disallow="tram rail_urban rail rail_electric ship" speed="16.67" length="4.00" shape="216.72,144.26 217.01,145.47 217.55,146.19 218.33,146.44 219.34,146.21"/>
    </edge>
    <edge id=":104507077_6" function="internal">
        <lane id=":104507077_6_0" index="0" disallow="tram rail_urban rail rail_electric ship" speed="13.89" length="18.52" shape="216.72,144.26 217.00,148.56 216.88,153.53 216.34,158.46 215.33,162.62"/>
    </edge>
    <edge id=":104507077_7" function="internal">
        <lane id=":104507077_7_0" index="0" disallow="tram rail_urban rail rail_electric ship" speed="16.67" length="8.70" shape="216.72,144.26 216.64,148.65 215.21,152.11 214.79,152.49"/>
    </edge>
    <edge id=":104507077_8" function="internal">
        <lane id=":104507077_8_0" index="0" allow="bicycle" speed="5.56" length="3.09" width="1.00" shape="216.72,144.26 218.14,145.53 218.52,146.65"/>
    </edge>
    <edge id=":104507077_20" function="internal">
        <lane id=":104507077_20_0" index="0" speed="16.67" length="7.65" shape="214.79,152.49 212.41,154.63 208.26,156.23"/>
    </edge>
    <edge id=":104507077_21" function="internal">
        <lane id=":104507077_21_0" index="0" speed="5.56" length="3.09" width="1.00" shape="218.52,146.65 217.85,147.63 216.13,148.46"/>
    </edge>
    <edge id=":104507077_9" function="internal">
        <lane id=":104507077_9_0" index="0" allow="bicycle" speed="16.67" length="9.47" width="1.00" shape="206.76,149.80 216.13,148.46"/>
    </edge>
    <edge id=":104507077_10" function="internal">
        <lane id=":104507077_10_0" index="0" disallow="tram rail_urban rail rail_electric ship" speed="27.78" length="13.38" shape="206.76,149.80 210.56,148.96 213.17,148.38 215.72,147.61 219.34,146.21"/>
        <lane id=":104507077_10_1" index="1" disallow="tram rail_urban rail rail_electric ship" speed="27.78" length="13.38" shape="207.51,153.01 211.46,152.14 214.17,151.53 216.82,150.72 220.59,149.27"/>
    </edge>
    <edge id=":104507077_12" function="internal">
        <lane id=":104507077_12_0" index="0" disallow="tram rail_urban rail rail_electric ship" speed="25.00" length="6.80" shape="207.51,153.01 212.58,152.54 214.11,153.28"/>
    </edge>
    <edge id=":104507077_13" function="internal">
        <lane id=":104507077_13_0" index="0" disallow="tram rail_urban rail rail_electric ship" speed="27.78" length="2.41" shape="207.51,153.01 208.90,153.53 209.49,154.24"/>
    </edge>
    <edge id=":104507077_22" function="internal">
        <lane id=":104507077_22_0" index="0" speed="25.00" length="10.51" shape="214.11,153.28 215.58,153.99 216.50,157.35 215.33,162.62"/>
    </edge>
    <edge id=":104507077_23" function="internal">
        <lane id=":104507077_23_0" index="0" speed="27.78" length="2.41" shape="209.49,154.24 209.27,155.14 208.26,156.23"/>
    </edge>
    <edge id=":104507077_14" function="internal">
        <lane id=":104507077_14_0" index="0" disallow="tram rail_urban rail rail_electric ship" speed="25.00" length="5.80" shape="211.90,162.42 212.25,160.74 211.88,159.68 210.80,159.25 209.01,159.44"/>
    </edge>
    <edge id=":104507077_15" function="internal">
        <lane id=":104507077_15_0" index="0" allow="bicycle" speed="13.89" length="14.74" width="1.00" shape="211.90,162.42 213.36,158.94 214.88,155.53 215.97,152.07 216.13,148.46"/>
    </edge>
    <edge id=":104507077_16" function="internal">
        <lane id=":104507077_16_0" index="0" disallow="tram rail_urban rail rail_electric ship" speed="25.00" length="7.79" shape="211.90,162.42 213.94,157.39 215.08,155.31"/>
    </edge>
    <edge id=":104507077_17" function="internal">
        <lane id=":104507077_17_0" index="0" disallow="tram rail_urban rail rail_electric ship" speed="22.22" length="2.92" shape="211.90,162.42 212.84,161.18 213.72,160.80 214.08,161.01"/>
    </edge>
    <edge id=":104507077_24" function="internal">
        <lane id=":104507077_24_0" index="0" speed="25.00" length="8.33" shape="215.08,155.31 216.06,153.52 218.28,150.82 220.59,149.27"/>
    </edge>