<?xml version="1.0"?>
<!-- 
194 Cars leaving the Computer Science Building and campus of the University of Erlangen-Nuremberg
Copyright (C) 2008 Christoph Sommer <christoph.sommer@informatik.uni-erlangen.de>
Licensed under the Creative Commons Attribution-ShareAlike 2.0 license <http://creativecommons.org/licenses/by-sa/2.0/>
-->
<routes>
   <vType id="vtype0" accel="2.6" decel="4.5" sigma="0.5" length="2.5" minGap="2.5" maxSpeed="14" color="1,1,0"/>
   <vType id="vtype1" accel="2.6" decel="4.5" sigma="0.5" length="2.5" minGap="2.5" maxSpeed="14" color="0,1,0"/>
   <vType id="vtype2" accel="2.6" decel="4.5" sigma="0.5" length="2.5" minGap="2.5" maxSpeed="14" color="1,0,0"/>
   <!--
   <route id="route0" edges="28727096#0 28727096#1 28727096#2 28727096#4 28727096#5 292851770#0 292851770#1 292851770#3  292851770#4"/>
   -->
      <route id="route0" edges="28727096#2 28727096#4 28727096#5 292851770#0 292851770#1 292851770#3  292851770#4"/>
 
   <route id="route1" edges="272888430 28727096#5 292851770#0 11956950"/>
   <route id="route2" edges="272888430 28727096#5 292851770#0 292851770#1 292851770#3 11729757"/>
   
   <flow id="flow0" type="vtype0" route="route0" begin="0" period="3" number="2"/>
   <flow id="flow1" type="vtype1" route="route1" begin="0" period="3" number="2"/>
   <flow id="flow2" type="vtype2" route="route2" begin="0" period="3" number="2"/>
</routes>
