<?xml version="1.0" encoding="iso-8859-1"?>

<configuration xmlns:xsi="http://www.w3.org/2001/XMLSchema-instance" xsi:noNamespaceSchemaLocation="http://sumo.sf.net/xsd/sumoConfiguration.xsd">

    <input>
        <net-file value="/home/veins/veins-4.3/ddash/cmu.net.xml"/>
        <gui-settings-file value="/home/veins/veins-4.3/ddash/test.xml" />
        <route-files value="/home/veins/veins-4.3/ddash/cmuscalability.rou.xml"/>
        <additional-files value="/home/veins/veins-4.3/ddash/cmu.poly.xml"/>
    </input>

    <time>
        <begin value="0"/>
        <end value="10000"/>
        <step-length value="0.1s"/>
    </time>

    <gui_only>
        <start value="true"/>
    </gui_only>

</configuration>
