<routes>

    <vType id="car" accel="0.8" decel="4.5" sigma="0.5" length="5" maxSpeed="15" speedFactor="1" speedDev="0.2"/>
    <route id="route0" edges="0/0to0/1 0/1to1/1 1/1to1/0 1/0to0/0" />
    <flow id="flow4" color="1,0,1" begin="10" end="10000" period="20" type="car" route="route0"/>
</routes>
