<routes>
   <vType id="vtype0" accel="2.6" decel="4.5" sigma="0.5" length="2.5" minGap="2.5" maxSpeed="14" color="1,1,0"/>
   <route id="route0" edges="gneE25 gneE1 gneE9 gneE11"/>
   <flow id="flow0" type="vtype0" route="route0" begin="0" period="4" number="10"/>
</routes>
